Synthetic/Memphis/MemphisCase2026_Mar7.m
% Case saved by PowerWorld Simulator, version 24, build date March 14, 2025
% Case Information Header = 4 lines
% This is a synthetic electric grid model which does not contain CEII and does not represent any actual electric grid.
% J. Baek and A. B. Birchfield, “Dynamic performance design and validation in large, IBR-heavy synthetic grids,” Energies, vol. 18, no. 15, 
% pp. 1-22, Jul. 2025.
% For questions contact Adam Birchfield, Texas A&M, abirchfield@tamu.edu
function mpc = MemphisCase2026_Mar7
mpc.version = '2';
mpc.baseMVA =  100.00;

%% bus data 
mpc.bus = [
2	1	0.00	0.00	0.00	0.00	2	1.0177040	-30.336864	138.00	1	1.100	0.900	7.63	7.55	0	0
3	1	0.00	0.00	0.00	0.00	2	1.0061802	-33.821276	69.00	1	1.100	0.900	24.82	14.46	0	0
4	1	0.00	0.00	0.00	0.00	3	1.0400028	-38.206689	138.00	1	1.100	0.900	12.12	0.02	0	0
5	1	0.00	0.00	0.00	61.05	3	1.0300000	-43.892469	69.00	1	1.100	0.900	18.66	0.00	0	0
6	1	0.00	0.00	0.00	0.00	3	1.0373177	-33.599056	138.00	1	1.100	0.900	3.74	-0.87	0	0
7	1	0.00	0.00	0.00	0.00	3	1.0289731	-37.046355	69.00	1	1.100	0.900	14.37	-1.03	0	0
8	1	0.00	0.00	0.00	0.00	3	1.0400014	-19.440924	345.00	1	1.100	0.900	5.07	-0.00	0	0
9	1	0.00	0.00	0.00	0.00	3	1.0341798	-33.695987	138.00	1	1.100	0.900	4.01	-0.87	0	0
10	1	0.00	0.00	0.00	0.00	3	1.0283989	-37.076755	69.00	1	1.100	0.900	11.30	1.23	0	0
11	1	0.00	0.00	0.00	0.00	3	1.0400002	-19.245482	345.00	1	1.100	0.900	5.09	0.01	0	0
12	1	0.00	0.00	0.00	0.00	3	1.0280992	-34.055093	138.00	1	1.100	0.900	7.03	-0.09	0	0
13	1	0.00	0.00	0.00	0.00	3	0.9965307	-41.162941	69.00	1	1.100	0.900	12.47	1.06	0	0
14	1	0.00	0.00	0.00	0.00	1	1.0409774	-22.630902	345.00	1	1.100	0.900	3.59	-0.21	0	0
15	1	0.00	0.00	0.00	0.00	1	1.0399780	-35.047368	138.00	1	1.100	0.900	-8.95	-0.53	0	0
16	1	0.00	0.00	0.00	0.00	1	1.0367905	-37.866263	69.00	1	1.100	0.900	-6.79	3.30	0	0
18	1	0.00	0.00	0.00	0.00	4	1.0572640	-40.390251	138.00	1	1.100	0.900	9.69	5.11	0	0
19	1	0.00	0.00	0.00	0.00	4	1.0457631	-45.210182	69.00	1	1.100	0.900	10.19	3.78	0	0
20	1	0.00	0.00	0.00	0.00	4	1.0242917	-50.207725	69.00	1	1.100	0.900	52.19	82.42	0	0
21	1	0.00	0.00	0.00	0.00	4	1.0315010	-43.511930	69.00	1	1.100	0.900	16.21	20.84	0	0
22	1	0.00	0.00	0.00	0.00	4	1.0400011	-18.523566	345.00	1	1.100	0.900	4.71	0.03	0	0
23	1	0.00	0.00	0.00	0.00	4	1.0356133	-38.868594	138.00	1	1.100	0.900	14.41	28.70	0	0
24	1	0.00	0.00	0.00	0.00	4	1.0303215	-41.071130	69.00	1	1.100	0.900	16.18	26.24	0	0
25	1	0.00	0.00	0.00	0.00	1	1.0499996	-24.889832	345.00	1	1.100	0.900	5.57	0.00	0	0
26	1	0.00	0.00	0.00	0.00	1	1.0293829	-43.315537	138.00	1	1.100	0.900	-3.61	1.87	0	0
27	1	0.00	0.00	0.00	0.00	1	1.0107255	-46.032436	69.00	1	1.100	0.900	-2.91	4.02	0	0
28	1	0.00	0.00	0.00	0.00	1	1.0318158	-39.199614	138.00	1	1.100	0.900	19.50	16.24	0	0
29	1	0.00	0.00	0.00	0.00	1	1.0119937	-43.680291	69.00	1	1.100	0.900	18.66	17.93	0	0
30	1	0.00	0.00	0.00	0.00	2	1.0599999	-7.676397	345.00	1	1.100	0.900	-25.34	-0.01	0	0
31	1	0.00	0.00	0.00	0.00	2	1.0314891	-30.004522	138.00	1	1.100	0.900	-11.02	1.59	0	0
32	1	0.00	0.00	0.00	0.00	2	1.0295055	-36.017482	69.00	1	1.100	0.900	-81.41	-19.32	0	0
33	1	0.00	0.00	0.00	0.00	4	1.0455441	-39.509116	138.00	1	1.100	0.900	11.50	12.80	0	0
34	1	0.00	0.00	0.00	0.00	4	1.0422595	-41.204204	69.00	1	1.100	0.900	12.01	12.05	0	0
35	1	0.00	0.00	0.00	0.00	4	1.0355254	-43.077654	69.00	1	1.100	0.900	12.62	15.06	0	0
36	1	0.00	0.00	0.00	0.00	4	1.0405273	-19.185076	345.00	1	1.100	0.900	4.76	0.04	0	0
37	1	0.00	0.00	0.00	0.00	4	1.0404584	-39.029742	138.00	1	1.100	0.900	11.10	14.49	0	0
38	1	0.00	0.00	0.00	0.00	4	1.0386763	-41.270548	69.00	1	1.100	0.900	12.35	16.46	0	0
39	1	0.00	0.00	0.00	0.00	4	1.0411776	-19.275357	345.00	1	1.100	0.900	4.90	0.06	0	0
40	1	0.00	0.00	0.00	74.41	4	1.0500000	-39.276267	138.00	1	1.100	0.900	8.82	0.00	0	0
41	1	0.00	0.00	0.00	0.00	4	1.0389091	-42.494998	69.00	1	1.100	0.900	9.00	14.75	0	0
42	1	0.00	0.00	0.00	0.00	1	1.0422540	-20.057185	345.00	1	1.100	0.900	5.52	4.26	0	0
43	1	0.00	0.00	0.00	0.00	1	1.0223440	-41.096170	138.00	1	1.100	0.900	29.45	50.73	0	0
44	1	0.00	0.00	0.00	0.00	1	1.0173524	-43.668983	69.00	1	1.100	0.900	29.61	59.57	0	0
45	1	0.00	0.00	0.00	57.71	2	1.0320000	-40.854679	69.00	1	1.100	0.900	-1.09	0.00	0	0
46	1	0.00	0.00	0.00	0.00	2	1.0298785	-27.518899	138.00	1	1.100	0.900	-0.02	0.03	0	0
47	1	0.00	0.00	0.00	0.00	2	1.0236061	-29.641001	69.00	1	1.100	0.900	-0.63	-0.06	0	0
48	1	0.00	0.00	0.00	0.00	1	1.0418466	-24.991674	345.00	1	1.100	0.900	8.07	5.24	0	0
49	1	0.00	0.00	0.00	0.00	1	1.0298093	-39.385712	138.00	1	1.100	0.900	19.74	16.19	0	0
50	1	0.00	0.00	0.00	0.00	1	1.0161181	-43.661622	69.00	1	1.100	0.900	21.57	16.84	0	0
51	1	0.00	0.00	0.00	0.00	1	1.0399999	-20.915253	345.00	1	1.100	0.900	6.36	0.02	0	0
52	1	0.00	0.00	0.00	0.00	1	1.0133225	-42.085675	138.00	1	1.100	0.900	50.54	17.90	0	0
53	1	0.00	0.00	0.00	0.00	1	1.0190351	-45.392138	69.00	1	1.100	0.900	51.98	10.30	0	0
54	1	0.00	0.00	0.00	0.00	2	1.0642425	-20.351223	345.00	1	1.100	0.900	2.74	0.88	0	0
55	1	0.00	0.00	0.00	-57.27	2	1.0300000	-27.422027	138.00	1	1.100	0.900	-0.02	0.00	0	0
56	1	0.00	0.00	0.00	0.00	2	1.0234556	-29.664151	69.00	1	1.100	0.900	-0.64	-0.05	0	0
57	1	0.00	0.00	0.00	0.00	1	1.0441863	-21.215822	345.00	1	1.100	0.900	5.70	3.64	0	0
58	1	0.00	0.00	0.00	0.00	1	1.0237490	-40.175102	138.00	1	1.100	0.900	20.88	34.16	0	0
59	1	0.00	0.00	0.00	0.00	1	1.0077988	-45.081121	69.00	1	1.100	0.900	23.33	37.06	0	0
60	1	0.00	0.00	0.00	0.00	3	1.0400004	-19.520823	345.00	1	1.100	0.900	5.08	-0.00	0	0
61	1	0.00	0.00	0.00	0.00	3	1.0325606	-33.932349	138.00	1	1.100	0.900	3.58	-1.05	0	0
62	1	0.00	0.00	0.00	0.00	3	1.0260218	-37.457299	69.00	1	1.100	0.900	-0.90	-3.29	0	0
63	1	0.00	0.00	0.00	0.00	1	1.0399992	-22.526030	345.00	1	1.100	0.900	5.45	0.08	0	0
64	1	0.00	0.00	0.00	0.00	1	1.0127858	-39.986576	138.00	1	1.100	0.900	34.55	106.65	0	0
65	1	0.00	0.00	0.00	0.00	1	1.0110306	-45.213669	69.00	1	1.100	0.900	50.68	116.48	0	0
66	1	0.00	0.00	0.00	0.00	1	1.0520001	-23.871555	345.00	1	1.100	0.900	5.58	0.01	0	0
67	1	0.00	0.00	0.00	40.26	1	1.0300000	-42.445071	138.00	1	1.100	0.900	-21.38	0.00	0	0
68	1	0.00	0.00	0.00	0.00	1	1.0129340	-46.566013	69.00	1	1.100	0.900	3.08	12.14	0	0
69	1	0.00	0.00	0.00	0.36	3	1.0300662	-37.270591	69.00	1	1.100	0.900	4.51	-2.40	0	0
70	1	0.00	0.00	0.00	0.00	2	1.0441647	-16.383929	345.00	1	1.100	0.900	4.61	1.32	0	0
71	1	0.00	0.00	0.00	0.00	2	1.0314052	-32.650826	138.00	1	1.100	0.900	-0.62	-0.17	0	0
72	1	0.00	0.00	0.00	0.00	2	1.0246741	-35.411733	69.00	1	1.100	0.900	-4.69	-1.66	0	0
73	1	0.00	0.00	0.00	0.00	1	1.0409446	-22.629705	345.00	1	1.100	0.900	3.58	-0.21	0	0
74	1	0.00	0.00	0.00	0.00	1	1.0400184	-35.049209	138.00	1	1.100	0.900	-8.88	-0.50	0	0
75	1	0.00	0.00	0.00	0.00	1	1.0367208	-37.885773	69.00	1	1.100	0.900	-6.69	3.37	0	0
76	1	0.00	0.00	0.00	0.00	1	1.0400000	-19.836982	345.00	1	1.100	0.900	7.80	0.01	0	0
77	1	0.00	0.00	0.00	0.00	1	1.0186204	-42.469425	138.00	1	1.100	0.900	15.76	13.07	0	0
78	1	0.00	0.00	0.00	0.00	1	1.0040866	-45.656599	69.00	1	1.100	0.900	-133.97	-61.27	0	0
79	1	0.00	0.00	0.00	0.00	2	1.0479722	-17.050737	345.00	1	1.100	0.900	5.09	1.77	0	0
80	1	0.00	0.00	0.00	0.00	2	1.0359954	-31.463754	138.00	1	1.100	0.900	-0.00	-0.07	0	0
81	1	0.00	0.00	0.00	0.00	2	1.0297994	-35.243275	69.00	1	1.100	0.900	-1.05	-0.38	0	0
82	1	0.00	0.00	0.00	0.00	2	1.0399989	-36.434551	138.00	1	1.100	0.900	-3.83	-0.01	0	0
83	1	0.00	0.00	0.00	6.29	2	1.0300000	-39.984332	69.00	1	1.100	0.900	-3.09	0.00	0	0
84	1	0.00	0.00	0.00	0.00	3	1.0302588	-35.313405	138.00	1	1.100	0.900	5.17	-0.53	0	0
85	1	0.00	0.00	0.00	0.00	3	1.0249435	-36.943716	69.00	1	1.100	0.900	5.61	-0.21	0	0
86	1	0.00	0.00	0.00	0.00	3	1.0351416	-35.683578	138.00	1	1.100	0.900	-0.01	-1.86	0	0
87	1	0.00	0.00	0.00	0.00	3	1.0275679	-37.993042	69.00	1	1.100	0.900	-27.44	-11.87	0	0
88	1	0.00	0.00	0.00	0.00	4	1.0352445	-48.023005	69.00	1	1.100	0.900	9.07	10.02	0	0
89	1	0.00	0.00	0.00	0.00	1	0.9934645	-45.401610	69.00	1	1.100	0.900	3.82	20.59	0	0
90	1	0.00	0.00	0.00	0.00	1	1.0212983	-40.370926	138.00	1	1.100	0.900	17.52	18.83	0	0
91	1	0.00	0.00	0.00	0.00	1	0.9990862	-44.885940	69.00	1	1.100	0.900	11.66	26.28	0	0
92	1	0.00	0.00	0.00	0.00	4	1.0369029	-39.424326	138.00	1	1.100	0.900	5.30	6.03	0	0
93	1	0.00	0.00	0.00	0.00	4	1.0250791	-43.494600	69.00	1	1.100	0.900	2.75	5.96	0	0
94	1	0.00	0.00	0.00	0.00	1	1.0031458	-44.572311	69.00	1	1.100	0.900	27.63	47.40	0	0
95	1	0.00	0.00	0.00	0.00	1	0.9991998	-44.886438	69.00	1	1.100	0.900	11.95	26.25	0	0
96	1	0.00	0.00	0.00	0.00	1	0.9934829	-45.226223	69.00	1	1.100	0.900	16.10	35.70	0	0
97	1	0.00	0.00	0.00	0.00	1	1.0400000	-46.686492	138.00	1	1.100	0.900	12.70	0.08	0	0
98	1	0.00	0.00	0.00	0.00	1	1.0191270	-49.496628	69.00	1	1.100	0.900	11.99	3.15	0	0
99	1	0.00	0.00	0.00	0.00	2	1.0313676	-33.398828	138.00	1	1.100	0.900	-4.09	1.16	0	0
100	1	0.00	0.00	0.00	0.00	2	1.0198353	-36.674925	69.00	1	1.100	0.900	-8.84	2.98	0	0
101	1	0.00	0.00	0.00	0.00	1	1.0230571	-42.956419	138.00	1	1.100	0.900	18.66	23.33	0	0
102	1	0.00	0.00	0.00	0.00	1	1.0049887	-45.520137	69.00	1	1.100	0.900	18.23	26.62	0	0
103	1	0.00	0.00	0.00	0.00	2	1.0309694	-31.470142	138.00	1	1.100	0.900	0.14	4.34	0	0
104	1	0.00	0.00	0.00	0.00	2	1.0273402	-33.344502	69.00	1	1.100	0.900	0.26	4.24	0	0
105	1	0.00	0.00	0.00	0.00	1	1.0319989	-44.378500	138.00	1	1.100	0.900	16.54	13.27	0	0
106	1	0.00	0.00	0.00	0.00	1	1.0163274	-45.783676	69.00	1	1.100	0.900	16.79	18.38	0	0
107	1	0.00	0.00	0.00	0.00	2	1.0332807	-31.513813	138.00	1	1.100	0.900	0.62	3.86	0	0
108	1	0.00	0.00	0.00	0.00	2	1.0325862	-32.781147	69.00	1	1.100	0.900	5.11	3.75	0	0
109	1	0.00	0.00	0.00	29.07	1	1.0299645	-41.460239	138.00	1	1.100	0.900	57.00	165.63	0	0
110	1	0.00	0.00	0.00	0.00	1	1.0229779	-43.101536	69.00	1	1.100	0.900	61.88	168.38	0	0
111	1	0.00	0.00	0.00	0.00	4	1.0194523	-44.957713	69.00	1	1.100	0.900	0.35	7.26	0	0
112	1	0.00	0.00	0.00	0.00	2	1.0249261	-37.407241	138.00	1	1.100	0.900	-0.00	0.18	0	0
113	1	0.00	0.00	0.00	0.00	2	0.9948099	-40.577000	69.00	1	1.100	0.900	4.56	1.63	0	0
114	1	0.00	0.00	0.00	0.00	2	1.0285848	-36.898155	138.00	1	1.100	0.900	-0.76	-0.01	0	0
115	1	0.00	0.00	0.00	0.00	2	1.0087478	-38.483516	69.00	1	1.100	0.900	-5.92	-1.52	0	0
116	1	0.00	0.00	0.00	0.00	1	0.9962959	-41.592825	138.00	1	1.100	0.900	28.92	72.62	0	0
117	1	0.00	0.00	0.00	0.00	1	0.9985702	-44.063608	69.00	1	1.100	0.900	29.65	53.00	0	0
118	1	0.00	0.00	0.00	0.00	1	1.0141940	-47.644474	69.00	1	1.100	0.900	32.11	44.34	0	0
119	1	0.00	0.00	0.00	0.00	2	1.0367758	-31.400059	138.00	1	1.100	0.900	-0.03	-0.06	0	0
120	1	0.00	0.00	0.00	0.00	2	1.0337774	-34.420996	69.00	1	1.100	0.900	-1.15	-0.28	0	0
121	1	0.00	0.00	0.00	75.43	1	1.0499504	-37.351501	138.00	1	1.100	0.900	2.35	5.48	0	0
122	1	0.00	0.00	0.00	0.00	1	1.0438751	-40.182998	69.00	1	1.100	0.900	0.54	3.92	0	0
123	1	0.00	0.00	0.00	0.00	2	1.0400003	-33.082256	138.00	1	1.100	0.900	-12.07	-0.30	0	0
124	1	0.00	0.00	0.00	0.00	2	1.0289902	-36.490209	69.00	1	1.100	0.900	-39.20	-11.03	0	0
125	1	0.00	0.00	0.00	0.00	2	1.0400074	-30.348182	138.00	1	1.100	0.900	-0.00	0.54	0	0
126	1	0.00	0.00	0.00	0.00	2	1.0343887	-33.798412	69.00	1	1.100	0.900	-0.94	-0.34	0	0
127	1	0.00	0.00	0.00	0.00	2	1.0342283	-31.465958	138.00	1	1.100	0.900	-1.18	4.44	0	0
128	1	0.00	0.00	0.00	0.00	2	1.0187510	-34.829177	69.00	1	1.100	0.900	2.02	6.28	0	0
129	1	0.00	0.00	0.00	0.00	1	1.0477732	-25.049825	345.00	1	1.100	0.900	5.33	-0.03	0	0
130	1	0.00	0.00	0.00	0.00	1	1.0292130	-43.300499	138.00	1	1.100	0.900	-6.96	1.73	0	0
131	1	0.00	0.00	0.00	0.00	1	1.0147745	-45.844455	69.00	1	1.100	0.900	-0.87	6.09	0	0
132	1	0.00	0.00	0.00	0.00	1	1.0380143	-45.939623	138.00	1	1.100	0.900	14.12	3.37	0	0
133	1	0.00	0.00	0.00	0.00	1	1.0236107	-48.400945	69.00	1	1.100	0.900	15.65	5.80	0	0
134	1	0.00	0.00	0.00	0.00	2	1.0303405	-45.974225	69.00	1	1.100	0.900	-1.93	-0.01	0	0
135	1	0.00	0.00	0.00	0.00	2	1.0398018	-36.016271	138.00	1	1.100	0.900	-0.01	0.02	0	0
136	1	0.00	0.00	0.00	0.00	2	1.0412999	-38.309557	69.00	1	1.100	0.900	0.71	0.37	0	0
137	1	7.20	1.18	0.00	24.89	4	1.0300000	-50.121957	69.00	1	1.100	0.900	11.23	0.00	0	0
138	1	3.57	1.64	0.00	29.89	2	1.0300000	-42.825192	69.00	1	1.100	0.900	11.02	0.00	0	0
139	1	6.15	2.69	0.00	0.00	3	0.9784056	-44.396258	69.00	1	1.100	0.900	20.42	0.55	0	0
140	1	3.71	1.25	0.00	0.00	2	1.0168700	-41.524191	69.00	1	1.100	0.900	130.88	0.44	0	0
141	1	5.88	1.23	0.00	0.00	4	1.0374495	-46.394767	69.00	1	1.100	0.900	12.75	4.06	0	0
142	1	3.39	1.00	0.00	0.00	3	1.0087425	-47.800943	69.00	1	1.100	0.900	16.89	0.43	0	0
143	1	5.63	0.86	0.00	0.00	4	1.0057979	-46.652951	69.00	1	1.100	0.900	12.87	11.45	0	0
144	1	4.53	2.06	0.00	0.00	2	1.0126236	-39.001730	69.00	1	1.100	0.900	167.60	2.53	0	0
145	1	3.28	1.09	0.00	0.00	4	1.0229444	-42.291370	69.00	1	1.100	0.900	15.98	22.63	0	0
146	1	4.88	2.33	0.00	0.00	4	1.0205227	-48.346031	69.00	1	1.100	0.900	33.94	65.99	0	0
147	1	5.49	2.63	0.00	0.00	3	0.9877980	-43.106649	69.00	1	1.100	0.900	22.14	0.61	0	0
148	1	3.57	0.93	0.00	0.00	3	1.0186440	-43.617076	69.00	1	1.100	0.900	34.21	2.56	0	0
149	1	4.35	1.48	0.00	0.00	4	1.0247687	-43.614505	69.00	1	1.100	0.900	17.07	22.41	0	0
150	1	3.36	1.35	0.00	0.00	2	1.0202500	-41.824279	69.00	1	1.100	0.900	123.27	0.03	0	0
151	1	4.80	1.19	0.00	0.00	2	1.0069831	-34.928975	69.00	1	1.100	0.900	61.47	15.30	0	0
152	1	5.68	0.96	0.00	0.00	4	1.0157144	-47.744386	69.00	1	1.100	0.900	42.46	109.93	0	0
153	1	3.16	0.67	0.00	0.00	4	1.0206698	-48.821643	69.00	1	1.100	0.900	37.19	68.75	0	0
154	1	4.82	1.36	0.00	0.00	4	1.0400930	-46.639041	69.00	1	1.100	0.900	11.08	2.60	0	0
155	1	3.31	1.02	0.00	0.00	2	1.0202125	-41.428974	69.00	1	1.100	0.900	3.46	0.55	0	0
156	1	5.40	1.37	0.00	0.00	1	1.0077298	-45.865525	69.00	1	1.100	0.900	57.56	125.83	0	0
157	1	4.52	2.21	0.00	0.00	3	0.9740760	-44.587786	69.00	1	1.100	0.900	17.55	0.62	0	0
158	1	3.75	0.67	0.00	0.00	2	1.0050027	-37.050331	69.00	1	1.100	0.900	-4.27	2.10	0	0
159	1	5.49	1.59	0.00	0.00	3	0.9903622	-42.391237	69.00	1	1.100	0.900	10.60	0.65	0	0
160	1	4.01	0.76	0.00	0.00	4	1.0202844	-43.974991	69.00	1	1.100	0.900	3.08	5.92	0	0
161	1	6.69	1.65	0.00	0.00	2	1.0084181	-37.574509	69.00	1	1.100	0.900	-2.26	-0.66	0	0
162	1	4.81	2.33	0.00	0.00	1	0.9887009	-46.101664	69.00	1	1.100	0.900	-11.09	10.42	0	0
163	1	4.43	0.61	0.00	0.00	2	1.0266036	-37.195403	69.00	1	1.100	0.900	-38.23	-9.77	0	0
164	1	3.03	0.39	0.00	0.00	4	1.0159304	-45.621409	69.00	1	1.100	0.900	13.82	13.38	0	0
165	1	3.40	0.50	0.00	0.00	2	1.0095407	-36.420299	69.00	1	1.100	0.900	-5.80	2.11	0	0
166	1	5.55	1.64	0.00	0.00	3	1.0171927	-42.024414	69.00	1	1.100	0.900	5.90	-0.26	0	0
167	1	3.91	1.14	0.00	0.00	3	0.9948589	-48.437710	69.00	1	1.100	0.900	17.96	0.61	0	0
168	1	3.83	1.70	0.00	0.00	4	1.0273294	-49.501467	69.00	1	1.100	0.900	19.29	0.78	0	0
169	1	4.18	1.52	0.00	0.00	1	0.9980662	-45.479458	69.00	1	1.100	0.900	20.94	24.69	0	0
170	1	4.41	1.14	0.00	0.00	2	1.0187518	-41.069372	69.00	1	1.100	0.900	17.93	-2.89	0	0
171	1	5.00	1.21	0.00	0.00	1	0.9988499	-44.637125	69.00	1	1.100	0.900	28.61	48.69	0	0
172	1	5.18	1.69	0.00	0.00	2	1.0097463	-39.522013	69.00	1	1.100	0.900	18.89	-3.66	0	0
173	1	3.01	0.88	0.00	0.00	1	0.9971142	-47.028737	69.00	1	1.100	0.900	30.45	43.41	0	0
174	1	4.52	1.58	0.00	0.00	1	1.0194150	-46.710097	69.00	1	1.100	0.900	51.44	5.55	0	0
175	1	3.04	1.00	0.00	0.00	4	1.0090749	-47.418218	69.00	1	1.100	0.900	10.68	4.22	0	0
176	1	3.06	1.01	0.00	0.00	1	1.0247396	-48.475567	69.00	1	1.100	0.900	96.72	11.77	0	0
177	1	3.08	0.93	0.00	0.00	3	0.9769102	-44.170214	69.00	1	1.100	0.900	13.91	0.72	0	0
178	1	5.86	2.08	0.00	0.00	4	1.0143950	-49.669995	69.00	1	1.100	0.900	85.12	214.16	0	0
179	1	6.05	0.98	0.00	0.00	4	1.0263329	-42.353596	69.00	1	1.100	0.900	16.33	23.41	0	0
180	1	3.11	0.67	0.00	0.00	1	0.9856114	-46.724328	69.00	1	1.100	0.900	44.20	82.16	0	0
181	1	4.56	2.21	0.00	0.00	3	1.0142190	-42.985220	69.00	1	1.100	0.900	30.65	3.01	0	0
182	1	3.12	1.36	0.00	0.00	4	1.0343768	-42.095777	69.00	1	1.100	0.900	12.58	16.05	0	0
183	1	7.35	3.26	0.00	0.00	1	1.0181648	-40.286339	69.00	1	1.100	0.900	-0.10	7.27	0	0
184	1	3.22	1.15	0.00	0.00	4	1.0152470	-48.883562	69.00	1	1.100	0.900	61.82	169.48	0	0
185	1	3.22	1.05	0.00	0.00	3	1.0337275	-44.288526	69.00	1	1.100	0.900	41.37	0.70	0	0
186	1	5.09	2.19	0.00	0.00	4	1.0331097	-42.460441	69.00	1	1.100	0.900	12.65	15.80	0	0
187	1	3.28	0.72	0.00	0.00	1	0.9902321	-45.563946	69.00	1	1.100	0.900	47.38	107.72	0	0
188	1	3.31	1.53	0.00	0.00	3	0.9885762	-45.108719	69.00	1	1.100	0.900	20.28	0.42	0	0
189	1	3.33	1.49	0.00	0.00	4	1.0305688	-43.320403	69.00	1	1.100	0.900	11.43	21.22	0	0
190	1	3.60	1.03	0.00	0.00	4	1.0107716	-46.731886	69.00	1	1.100	0.900	12.21	9.18	0	0
191	1	3.33	0.37	0.00	0.00	1	0.9886165	-46.667919	69.00	1	1.100	0.900	5.26	18.20	0	0
192	1	3.34	0.41	0.00	0.00	3	1.0129278	-42.041344	69.00	1	1.100	0.900	26.61	3.16	0	0
193	1	3.35	0.40	0.00	0.00	4	1.0287003	-47.365170	69.00	1	1.100	0.900	15.05	31.91	0	0
194	1	3.36	1.22	0.00	0.00	2	1.0277120	-40.202544	69.00	1	1.100	0.900	9.34	-0.35	0	0
195	1	5.04	2.24	0.00	0.00	2	1.0083633	-40.838582	69.00	1	1.100	0.900	12.02	-0.34	0	0
196	1	3.37	1.68	0.00	0.00	4	1.0167370	-46.584610	69.00	1	1.100	0.900	11.57	7.45	0	0
197	1	4.37	0.99	0.00	0.00	3	0.9744174	-44.516769	69.00	1	1.100	0.900	16.01	0.77	0	0
198	1	3.39	1.53	0.00	0.00	3	1.0045737	-39.609248	69.00	1	1.100	0.900	5.34	-1.19	0	0
199	1	4.94	1.59	0.00	0.00	4	1.0268783	-41.873836	69.00	1	1.100	0.900	16.27	24.38	0	0
200	1	6.25	1.01	0.00	25.66	4	1.0400000	-49.764325	69.00	1	1.100	0.900	23.35	0.00	0	0
201	1	3.42	1.30	0.00	0.00	3	1.0035511	-42.522264	69.00	1	1.100	0.900	105.64	-19.14	0	0
202	1	4.08	1.93	0.00	0.00	3	1.0002544	-43.930770	69.00	1	1.100	0.900	77.74	-14.02	0	0
...
];

%% generator data 
mpc.gen = [
808	48.00	-2.40	-2.40	-2.40	1.0084	53.30	1	48.00	15.00	0.00	0.00	0.00	0.00	0.00	0.00	0	0	0	0	48.0000	0	0	0	0
809	48.00	-2.40	-2.40	-2.40	1.0083	53.30	1	48.00	15.00	0.00	0.00	0.00	0.00	0.00	0.00	0	0	0	0	48.0000	0	0	0	0
810	33.00	15.40	15.40	-4.00	1.0847	36.70	1	33.00	30.00	0.00	0.00	0.00	0.00	0.00	0.00	0	0	0	0	33.0000	0	0	0	0
811	33.00	15.40	15.40	-4.00	1.0507	36.70	1	33.00	30.00	0.00	0.00	0.00	0.00	0.00	0.00	0	0	0	0	33.0000	0	0	0	0
812	33.00	15.40	15.40	-4.00	1.0616	36.70	1	33.00	30.00	0.00	0.00	0.00	0.00	0.00	0.00	0	0	0	0	33.0000	0	0	0	0
813	75.00	28.89	38.20	-8.30	1.0792	83.30	1	75.00	40.00	0.00	0.00	0.00	0.00	0.00	0.00	0	0	0	0	75.0000	0	0	0	0
814	75.00	28.89	38.20	-8.30	1.0529	83.30	1	75.00	40.00	0.00	0.00	0.00	0.00	0.00	0.00	0	0	0	0	75.0000	0	0	0	0
815	32.50	12.50	12.50	-1.60	1.0735	36.10	1	32.50	32.50	0.00	0.00	0.00	0.00	0.00	0.00	0	0	0	0	32.5000	0	0	0	0
816	32.50	12.50	12.50	-1.60	1.0652	36.10	1	32.50	32.50	0.00	0.00	0.00	0.00	0.00	0.00	0	0	0	0	32.5000	0	0	0	0
817	32.50	12.50	12.50	-1.60	1.0521	36.10	1	32.50	32.50	0.00	0.00	0.00	0.00	0.00	0.00	0	0	0	0	32.5000	0	0	0	0
818	32.50	12.50	12.50	-1.60	1.0546	36.10	1	32.50	32.50	0.00	0.00	0.00	0.00	0.00	0.00	0	0	0	0	32.5000	0	0	0	0
819	44.60	0.25	17.10	-2.20	1.0389	49.60	1	44.60	18.90	0.00	0.00	0.00	0.00	0.00	0.00	0	0	0	0	44.6000	0	0	0	0
820	42.40	0.25	16.30	-2.10	1.0396	47.10	1	42.40	18.90	0.00	0.00	0.00	0.00	0.00	0.00	0	0	0	0	42.4000	0	0	0	0
821	42.40	0.25	16.30	-2.10	1.0403	47.10	1	42.40	18.90	0.00	0.00	0.00	0.00	0.00	0.00	0	0	0	0	42.4000	0	0	0	0
822	44.60	0.25	17.10	-2.20	1.0393	49.60	1	44.60	18.90	0.00	0.00	0.00	0.00	0.00	0.00	0	0	0	0	44.6000	0	0	0	0
823	44.60	0.25	17.10	-2.20	1.0400	49.60	1	44.60	18.90	0.00	0.00	0.00	0.00	0.00	0.00	0	0	0	0	44.6000	0	0	0	0
824	51.00	-15.15	81.60	-21.30	1.0289	194.40	1	175.00	51.00	0.00	0.00	0.00	0.00	0.00	0.00	0	0	0	0	175.0000	0	0	0	0
825	51.00	-15.15	81.60	-21.30	1.0378	194.40	1	175.00	51.00	0.00	0.00	0.00	0.00	0.00	0.00	0	0	0	0	175.0000	0	0	0	0
826	51.00	-15.15	81.60	-21.30	1.0369	194.40	1	175.00	51.00	0.00	0.00	0.00	0.00	0.00	0.00	0	0	0	0	175.0000	0	0	0	0
827	51.00	-15.15	81.60	-21.30	1.0379	194.40	1	175.00	51.00	0.00	0.00	0.00	0.00	0.00	0.00	0	0	0	0	175.0000	0	0	0	0
828	51.00	-15.15	81.60	-21.30	1.0295	194.40	1	175.00	51.00	0.00	0.00	0.00	0.00	0.00	0.00	0	0	0	0	175.0000	0	0	0	0
829	51.00	-15.15	81.60	-21.30	1.0269	194.40	1	175.00	51.00	0.00	0.00	0.00	0.00	0.00	0.00	0	0	0	0	175.0000	0	0	0	0
830	51.00	-15.15	81.60	-21.30	1.0368	194.40	1	175.00	51.00	0.00	0.00	0.00	0.00	0.00	0.00	0	0	0	0	175.0000	0	0	0	0
831	51.00	-15.15	81.60	-21.30	1.0269	194.40	1	175.00	51.00	0.00	0.00	0.00	0.00	0.00	0.00	0	0	0	0	175.0000	0	0	0	0
832	51.00	-15.15	81.60	-21.30	1.0319	194.40	1	175.00	51.00	0.00	0.00	0.00	0.00	0.00	0.00	0	0	0	0	175.0000	0	0	0	0
833	5.00	-0.70	3.10	-0.70	1.0384	6.70	1	6.00	5.00	0.00	0.00	0.00	0.00	0.00	0.00	0	0	0	0	6.0000	0	0	0	0
834	5.00	-0.80	3.80	-0.80	1.0390	8.30	1	7.50	5.00	0.00	0.00	0.00	0.00	0.00	0.00	0	0	0	0	7.5000	0	0	0	0
835	5.00	-1.80	8.20	-1.80	1.0379	18.00	1	16.20	5.00	0.00	0.00	0.00	0.00	0.00	0.00	0	0	0	0	16.2000	0	0	0	0
836	11.00	-2.80	13.00	-2.80	1.0391	28.30	1	25.50	11.00	0.00	0.00	0.00	0.00	0.00	0.00	0	0	0	0	25.5000	0	0	0	0
837	204.00	38.12	38.12	38.12	1.0633	226.70	1	204.00	165.00	0.00	0.00	0.00	0.00	0.00	0.00	0	0	0	0	204.0000	0	0	0	0
838	204.00	38.12	38.12	38.12	1.0744	226.70	1	204.00	165.00	0.00	0.00	0.00	0.00	0.00	0.00	0	0	0	0	204.0000	0	0	0	0
839	6.80	3.20	3.20	3.20	1.0503	7.60	1	6.80	2.50	0.00	0.00	0.00	0.00	0.00	0.00	0	0	0	0	6.8000	0	0	0	0
840	6.80	3.20	3.20	3.20	1.0441	7.60	1	6.80	2.50	0.00	0.00	0.00	0.00	0.00	0.00	0	0	0	0	6.8000	0	0	0	0
841	6.20	2.90	2.90	-0.80	1.0444	6.90	1	6.20	5.00	0.00	0.00	0.00	0.00	0.00	0.00	0	0	0	0	6.2000	0	0	0	0
842	6.20	2.90	2.90	-0.80	1.0498	6.90	1	6.20	5.00	0.00	0.00	0.00	0.00	0.00	0.00	0	0	0	0	6.2000	0	0	0	0
843	6.40	3.30	3.30	-0.70	1.0403	7.10	1	6.40	5.10	0.00	0.00	0.00	0.00	0.00	0.00	0	0	0	0	6.4000	0	0	0	0
844	6.40	3.30	3.30	-0.70	1.0669	7.10	1	6.40	5.10	0.00	0.00	0.00	0.00	0.00	0.00	0	0	0	0	6.4000	0	0	0	0
845	6.20	2.90	2.90	-0.80	1.0525	6.90	1	6.20	5.00	0.00	0.00	0.00	0.00	0.00	0.00	0	0	0	0	6.2000	0	0	0	0
846	170.00	-34.70	302.90	-79.30	1.0316	722.20	1	650.00	170.00	0.00	0.00	0.00	0.00	0.00	0.00	0	0	0	0	650.0000	0	0	0	0
847	170.00	-34.70	302.90	-79.30	1.0338	722.20	1	650.00	170.00	0.00	0.00	0.00	0.00	0.00	0.00	0	0	0	0	650.0000	0	0	0	0
848	7.10	4.64	176.60	-38.50	1.0517	385.60	1	347.00	0.00	0.00	0.00	0.00	0.00	0.00	0.00	0	0	0	0	347.0000	0	0	0	0
849	69.40	4.65	176.60	-38.50	1.0518	385.60	1	347.00	0.00	0.00	0.00	0.00	0.00	0.00	0.00	0	0	0	0	347.0000	0	0	0	0
850	5.00	4.62	11.10	-2.90	1.0539	26.60	1	23.90	5.00	0.00	0.00	0.00	0.00	0.00	0.00	0	0	0	0	23.9000	0	0	0	0
851	5.00	4.62	11.10	-2.90	1.0553	26.60	1	23.90	5.00	0.00	0.00	0.00	0.00	0.00	0.00	0	0	0	0	23.9000	0	0	0	0
852	5.00	4.62	11.10	-2.90	1.0564	26.60	1	23.90	5.00	0.00	0.00	0.00	0.00	0.00	0.00	0	0	0	0	23.9000	0	0	0	0
853	5.00	4.62	11.10	-2.90	1.0553	26.60	1	23.90	5.00	0.00	0.00	0.00	0.00	0.00	0.00	0	0	0	0	23.9000	0	0	0	0
854	5.00	4.62	11.10	-2.90	1.0672	26.60	1	23.90	5.00	0.00	0.00	0.00	0.00	0.00	0.00	0	0	0	0	23.9000	0	0	0	0
855	5.00	4.62	11.10	-2.90	1.0659	26.60	1	23.90	5.00	0.00	0.00	0.00	0.00	0.00	0.00	0	0	0	0	23.9000	0	0	0	0
856	5.00	4.62	11.10	-2.90	1.0688	26.60	1	23.90	5.00	0.00	0.00	0.00	0.00	0.00	0.00	0	0	0	0	23.9000	0	0	0	0
857	10.00	4.62	27.80	-7.30	1.0539	66.20	1	59.60	10.00	0.00	0.00	0.00	0.00	0.00	0.00	0	0	0	0	59.6000	0	0	0	0
858	10.00	4.62	27.80	-7.30	1.0532	66.20	1	59.60	10.00	0.00	0.00	0.00	0.00	0.00	0.00	0	0	0	0	59.6000	0	0	0	0
859	10.00	4.62	27.80	-7.30	1.0544	66.20	1	59.60	10.00	0.00	0.00	0.00	0.00	0.00	0.00	0	0	0	0	59.6000	0	0	0	0
860	10.00	4.62	27.80	-7.30	1.0597	66.20	1	59.60	10.00	0.00	0.00	0.00	0.00	0.00	0.00	0	0	0	0	59.6000	0	0	0	0
861	5.00	4.62	11.10	-2.90	1.0700	26.60	1	23.90	5.00	0.00	0.00	0.00	0.00	0.00	0.00	0	0	0	0	23.9000	0	0	0	0
862	5.00	4.62	11.10	-2.90	1.0648	26.60	1	23.90	5.00	0.00	0.00	0.00	0.00	0.00	0.00	0	0	0	0	23.9000	0	0	0	0
863	5.00	4.62	11.10	-2.90	1.0568	26.60	1	23.90	5.00	0.00	0.00	0.00	0.00	0.00	0.00	0	0	0	0	23.9000	0	0	0	0
864	5.00	4.62	11.10	-2.90	1.0612	26.60	1	23.90	5.00	0.00	0.00	0.00	0.00	0.00	0.00	0	0	0	0	23.9000	0	0	0	0
865	5.00	4.62	11.10	-2.90	1.0702	26.60	1	23.90	5.00	0.00	0.00	0.00	0.00	0.00	0.00	0	0	0	0	23.9000	0	0	0	0
866	5.00	4.62	11.10	-2.90	1.0600	26.60	1	23.90	5.00	0.00	0.00	0.00	0.00	0.00	0.00	0	0	0	0	23.9000	0	0	0	0
867	5.00	4.62	11.10	-2.90	1.0708	26.60	1	23.90	5.00	0.00	0.00	0.00	0.00	0.00	0.00	0	0	0	0	23.9000	0	0	0	0
868	5.00	4.62	11.10	-2.90	1.0666	26.60	1	23.90	5.00	0.00	0.00	0.00	0.00	0.00	0.00	0	0	0	0	23.9000	0	0	0	0
869	5.00	4.62	11.10	-2.90	1.0618	26.60	1	23.90	5.00	0.00	0.00	0.00	0.00	0.00	0.00	0	0	0	0	23.9000	0	0	0	0
870	0.00	4.62	242.70	-52.90	1.0509	529.90	1	476.90	0.00	0.00	0.00	0.00	0.00	0.00	0.00	0	0	0	0	476.9000	0	0	0	0
871	40.00	15.40	15.40	-2.00	1.0463	44.40	1	40.00	32.70	0.00	0.00	0.00	0.00	0.00	0.00	0	0	0	0	40.0000	0	0	0	0
872	40.00	15.40	15.40	-2.00	1.0528	44.40	1	40.00	32.70	0.00	0.00	0.00	0.00	0.00	0.00	0	0	0	0	40.0000	0	0	0	0
873	40.00	15.40	15.40	-2.00	1.0750	44.40	1	40.00	32.70	0.00	0.00	0.00	0.00	0.00	0.00	0	0	0	0	40.0000	0	0	0	0
874	40.00	15.40	15.40	-2.00	1.0658	44.40	1	40.00	32.70	0.00	0.00	0.00	0.00	0.00	0.00	0	0	0	0	40.0000	0	0	0	0
875	40.00	15.40	15.40	-2.00	1.0447	44.40	1	40.00	30.80	0.00	0.00	0.00	0.00	0.00	0.00	0	0	0	0	40.0000	0	0	0	0
876	40.00	15.40	15.40	-2.00	1.0704	44.40	1	40.00	30.80	0.00	0.00	0.00	0.00	0.00	0.00	0	0	0	0	40.0000	0	0	0	0
877	900.00	137.88	419.40	-109.80	1.0740	1000.00	1	900.00	900.00	0.00	0.00	0.00	0.00	0.00	0.00	0	0	0	0	900.0000	0	0	0	0
878	900.00	137.88	419.40	-109.80	1.0668	1000.00	1	900.00	900.00	0.00	0.00	0.00	0.00	0.00	0.00	0	0	0	0	900.0000	0	0	0	0
879	108.20	-31.80	121.60	-31.80	1.0424	290.00	1	261.00	70.00	0.00	0.00	0.00	0.00	0.00	0.00	0	0	0	0	261.0000	0	0	0	0
880	7.00	3.60	3.60	-0.80	1.0679	7.80	1	7.00	3.00	0.00	0.00	0.00	0.00	0.00	0.00	0	0	0	0	7.0000	0	0	0	0
881	7.00	3.60	3.60	-0.80	1.0573	7.80	1	7.00	3.00	0.00	0.00	0.00	0.00	0.00	0.00	0	0	0	0	7.0000	0	0	0	0
882	6.70	3.10	3.10	-0.80	1.0598	7.40	1	6.70	3.00	0.00	0.00	0.00	0.00	0.00	0.00	0	0	0	0	6.7000	0	0	0	0
883	6.70	3.40	3.40	-0.70	1.0553	7.40	1	6.70	3.00	0.00	0.00	0.00	0.00	0.00	0.00	0	0	0	0	6.7000	0	0	0	0
884	6.70	3.40	3.40	-0.70	1.0506	7.40	1	6.70	3.00	0.00	0.00	0.00	0.00	0.00	0.00	0	0	0	0	6.7000	0	0	0	0
885	183.00	-28.10	128.90	-28.10	1.0192	281.40	1	253.30	183.00	0.00	0.00	0.00	0.00	0.00	0.00	0	0	0	0	253.3000	0	0	0	0
886	183.00	-28.10	128.90	-28.10	1.0383	281.40	1	253.30	183.00	0.00	0.00	0.00	0.00	0.00	0.00	0	0	0	0	253.3000	0	0	0	0
887	86.00	-13.50	61.70	-13.50	1.0267	134.70	1	121.20	86.00	0.00	0.00	0.00	0.00	0.00	0.00	0	0	0	0	121.2000	0	0	0	0
888	78.20	-19.20	88.30	-19.20	1.0295	192.70	1	173.40	78.20	0.00	0.00	0.00	0.00	0.00	0.00	0	0	0	0	173.4000	0	0	0	0
889	78.20	-19.20	88.30	-19.20	1.0345	192.70	1	173.40	78.20	0.00	0.00	0.00	0.00	0.00	0.00	0	0	0	0	173.4000	0	0	0	0
890	60.00	-9.40	43.00	-9.40	1.0243	93.90	1	84.50	60.00	0.00	0.00	0.00	0.00	0.00	0.00	0	0	0	0	84.5000	0	0	0	0
891	65.24	-9.60	43.90	-9.60	1.0393	95.80	1	86.20	60.00	0.00	0.00	0.00	0.00	0.00	0.00	0	0	0	0	86.2000	0	0	0	0
892	60.00	-9.60	43.90	-9.60	1.0224	95.80	1	86.20	60.00	0.00	0.00	0.00	0.00	0.00	0.00	0	0	0	0	86.2000	0	0	0	0
893	60.00	-9.60	43.90	-9.60	1.0280	95.80	1	86.20	60.00	0.00	0.00	0.00	0.00	0.00	0.00	0	0	0	0	86.2000	0	0	0	0
894	60.00	-9.40	43.00	-9.40	1.0247	93.90	1	84.50	60.00	0.00	0.00	0.00	0.00	0.00	0.00	0	0	0	0	84.5000	0	0	0	0
895	60.00	-9.40	43.00	-9.40	1.0399	93.90	1	84.50	60.00	0.00	0.00	0.00	0.00	0.00	0.00	0	0	0	0	84.5000	0	0	0	0
896	60.00	-9.40	43.00	-9.40	1.0282	93.90	1	84.50	60.00	0.00	0.00	0.00	0.00	0.00	0.00	0	0	0	0	84.5000	0	0	0	0
897	60.00	-9.40	43.00	-9.40	1.0313	93.90	1	84.50	60.00	0.00	0.00	0.00	0.00	0.00	0.00	0	0	0	0	84.5000	0	0	0	0
898	60.00	-9.40	43.00	-9.40	1.0360	93.90	1	84.50	60.00	0.00	0.00	0.00	0.00	0.00	0.00	0	0	0	0	84.5000	0	0	0	0
899	60.00	-9.40	43.00	-9.40	1.0311	93.90	1	84.50	60.00	0.00	0.00	0.00	0.00	0.00	0.00	0	0	0	0	84.5000	0	0	0	0
900	60.00	-9.40	43.00	-9.40	1.0365	93.90	1	84.50	60.00	0.00	0.00	0.00	0.00	0.00	0.00	0	0	0	0	84.5000	0	0	0	0
901	60.00	-9.60	43.90	-9.60	1.0395	95.80	1	86.20	60.00	0.00	0.00	0.00	0.00	0.00	0.00	0	0	0	0	86.2000	0	0	0	0
902	96.80	-28.60	131.10	-28.60	1.0315	286.20	1	257.60	96.80	0.00	0.00	0.00	0.00	0.00	0.00	0	0	0	0	257.6000	0	0	0	0
903	6.00	3.30	3.30	3.30	1.0497	7.10	1	6.40	6.00	0.00	0.00	0.00	0.00	0.00	0.00	0	0	0	0	6.4000	0	0	0	0
904	6.00	3.30	3.30	3.30	1.0591	7.10	1	6.40	6.00	0.00	0.00	0.00	0.00	0.00	0.00	0	0	0	0	6.4000	0	0	0	0
905	6.00	3.30	3.30	3.30	1.0542	7.10	1	6.40	6.00	0.00	0.00	0.00	0.00	0.00	0.00	0	0	0	0	6.4000	0	0	0	0
906	10.00	0.00	0.00	0.00	1.0302	44.40	1	40.00	10.00	0.00	0.00	0.00	0.00	0.00	0.00	0	0	0	0	40.0000	0	0	0	0
907	9.29	0.00	0.00	0.00	1.0305	22.20	1	20.00	7.00	0.00	0.00	0.00	0.00	0.00	0.00	0	0	0	0	20.0000	0	0	0	0
908	7.00	0.00	0.00	0.00	1.0301	27.80	1	25.00	7.00	0.00	0.00	0.00	0.00	0.00	0.00	0	0	0	0	25.0000	0	0	0	0
909	50.00	0.00	0.00	0.00	1.0417	55.60	1	50.00	2.00	0.00	0.00	0.00	0.00	0.00	0.00	0	0	0	0	50.0000	0	0	0	0
910	22.50	0.00	0.00	0.00	1.0405	25.00	1	22.50	2.00	0.00	0.00	0.00	0.00	0.00	0.00	0	0	0	0	22.5000	0	0	0	0
911	115.00	8.64	93.90	-20.50	1.0447	205.00	1	184.50	115.00	0.00	0.00	0.00	0.00	0.00	0.00	0	0	0	0	184.5000	0	0	0	0
912	120.29	8.64	93.90	-20.50	1.0433	205.00	1	184.50	115.00	0.00	0.00	0.00	0.00	0.00	0.00	0	0	0	0	184.5000	0	0	0	0
913	128.90	8.64	93.90	-20.50	1.0429	205.00	1	184.50	115.00	0.00	0.00	0.00	0.00	0.00	0.00	0	0	0	0	184.5000	0	0	0	0
914	112.50	8.64	57.30	-12.50	1.0436	125.00	1	112.50	40.00	0.00	0.00	0.00	0.00	0.00	0.00	0	0	0	0	112.5000	0	0	0	0
915	112.50	8.64	57.30	-12.50	1.0437	125.00	1	112.50	40.00	0.00	0.00	0.00	0.00	0.00	0.00	0	0	0	0	112.5000	0	0	0	0
916	112.50	8.64	57.30	-12.50	1.0440	125.00	1	112.50	40.00	0.00	0.00	0.00	0.00	0.00	0.00	0	0	0	0	112.5000	0	0	0	0
917	100.00	-20.00	91.60	-20.00	1.0622	200.00	1	180.00	100.00	0.00	0.00	0.00	0.00	0.00	0.00	0	0	0	0	180.0000	0	0	0	0
918	12.00	-5.60	25.70	-5.60	1.0602	56.00	1	50.40	12.00	0.00	0.00	0.00	0.00	0.00	0.00	0	0	0	0	50.4000	0	0	0	0
919	75.00	-12.40	105.29	-12.40	1.0399	124.40	1	112.00	75.00	0.00	0.00	0.00	0.00	0.00	0.00	0	0	0	0	112.0000	0	0	0	0
920	75.00	-12.40	105.29	-12.40	1.0420	124.40	1	112.00	75.00	0.00	0.00	0.00	0.00	0.00	0.00	0	0	0	0	112.0000	0	0	0	0
921	84.00	-13.10	105.29	-13.10	1.0390	131.10	1	118.00	84.00	0.00	0.00	0.00	0.00	0.00	0.00	0	0	0	0	118.0000	0	0	0	0
922	84.00	-13.10	105.29	-13.10	1.0261	131.10	1	118.00	84.00	0.00	0.00	0.00	0.00	0.00	0.00	0	0	0	0	118.0000	0	0	0	0
923	45.00	-1.66	43.80	-9.50	1.0379	95.60	1	86.00	45.00	0.00	0.00	0.00	0.00	0.00	0.00	0	0	0	0	86.0000	0	0	0	0
924	53.20	-1.66	43.80	-9.50	1.0392	95.60	1	86.00	45.00	0.00	0.00	0.00	0.00	0.00	0.00	0	0	0	0	86.0000	0	0	0	0
925	53.20	-1.64	43.80	-9.50	1.0393	95.60	1	86.00	45.00	0.00	0.00	0.00	0.00	0.00	0.00	0	0	0	0	86.0000	0	0	0	0
926	53.20	-1.64	43.80	-9.50	1.0378	95.60	1	86.00	45.00	0.00	0.00	0.00	0.00	0.00	0.00	0	0	0	0	86.0000	0	0	0	0
927	45.00	-1.66	43.80	-9.50	1.0362	95.60	1	86.00	45.00	0.00	0.00	0.00	0.00	0.00	0.00	0	0	0	0	86.0000	0	0	0	0
928	53.20	-1.66	43.80	-9.50	1.0394	95.60	1	86.00	45.00	0.00	0.00	0.00	0.00	0.00	0.00	0	0	0	0	86.0000	0	0	0	0
929	53.00	-1.62	43.80	-9.50	1.0373	95.60	1	86.00	45.00	0.00	0.00	0.00	0.00	0.00	0.00	0	0	0	0	86.0000	0	0	0	0
930	45.00	-1.66	43.80	-9.50	1.0384	95.60	1	86.00	45.00	0.00	0.00	0.00	0.00	0.00	0.00	0	0	0	0	86.0000	0	0	0	0
931	70.00	-2.07	94.40	-20.60	1.0399	206.00	1	185.40	70.00	0.00	0.00	0.00	0.00	0.00	0.00	0	0	0	0	185.4000	0	0	0	0
932	70.00	-2.07	97.30	-21.20	1.0396	212.40	1	191.20	70.00	0.00	0.00	0.00	0.00	0.00	0.00	0	0	0	0	191.2000	0	0	0	0
933	70.00	-2.07	97.30	-21.20	1.0384	212.40	1	191.20	70.00	0.00	0.00	0.00	0.00	0.00	0.00	0	0	0	0	191.2000	0	0	0	0
934	129.10	58.58	91.30	-19.90	1.0589	199.20	1	179.30	129.10	0.00	0.00	0.00	0.00	0.00	0.00	0	0	0	0	179.3000	0	0	0	0
935	129.10	58.58	91.30	-19.90	1.0585	199.20	1	179.30	129.10	0.00	0.00	0.00	0.00	0.00	0.00	0	0	0	0	179.3000	0	0	0	0
936	129.10	58.58	91.30	-19.90	1.0703	199.20	1	179.30	129.10	0.00	0.00	0.00	0.00	0.00	0.00	0	0	0	0	179.3000	0	0	0	0
937	85.12	58.59	64.01	-13.50	1.0625	135.60	1	122.00	75.90	0.00	0.00	0.00	0.00	0.00	0.00	0	0	0	0	122.0000	0	0	0	0
938	75.90	58.58	64.01	-13.50	1.0705	135.60	1	122.00	75.90	0.00	0.00	0.00	0.00	0.00	0.00	0	0	0	0	122.0000	0	0	0	0
939	94.34	58.59	64.01	-13.50	1.0752	135.60	1	122.00	75.90	0.00	0.00	0.00	0.00	0.00	0.00	0	0	0	0	122.0000	0	0	0	0
940	12.62	13.60	13.60	-3.00	1.0871	29.70	1	26.70	3.00	0.00	0.00	0.00	0.00	0.00	0.00	0	0	0	0	26.7000	0	0	0	0
941	100.00	-22.10	101.40	-22.10	1.0295	221.40	1	199.30	100.00	0.00	0.00	0.00	0.00	0.00	0.00	0	0	0	0	199.3000	0	0	0	0
942	100.00	-22.10	101.40	-22.10	1.0308	221.40	1	199.30	100.00	0.00	0.00	0.00	0.00	0.00	0.00	0	0	0	0	199.3000	0	0	0	0
943	62.00	-31.10	142.80	-31.10	1.0374	311.70	1	280.50	62.00	0.00	0.00	0.00	0.00	0.00	0.00	0	0	0	0	280.5000	0	0	0	0
944	50.00	-8.50	39.00	-8.50	1.0322	85.10	1	76.60	50.00	0.00	0.00	0.00	0.00	0.00	0.00	0	0	0	0	76.6000	0	0	0	0
945	50.00	-8.50	39.00	-8.50	1.0331	85.10	1	76.60	50.00	0.00	0.00	0.00	0.00	0.00	0.00	0	0	0	0	76.6000	0	0	0	0
946	50.00	-8.50	39.00	-8.50	1.0337	85.10	1	76.60	50.00	0.00	0.00	0.00	0.00	0.00	0.00	0	0	0	0	76.6000	0	0	0	0
947	50.00	-8.50	39.00	-8.50	1.0275	85.10	1	76.60	50.00	0.00	0.00	0.00	0.00	0.00	0.00	0	0	0	0	76.6000	0	0	0	0
948	178.50	-10.21	90.90	-19.80	1.0338	198.30	1	178.50	82.40	0.00	0.00	0.00	0.00	0.00	0.00	0	0	0	0	178.5000	0	0	0	0
949	178.50	-10.21	90.90	-19.80	1.0271	198.30	1	178.50	82.40	0.00	0.00	0.00	0.00	0.00	0.00	0	0	0	0	178.5000	0	0	0	0
950	178.50	-10.21	90.90	-19.80	1.0308	198.30	1	178.50	82.40	0.00	0.00	0.00	0.00	0.00	0.00	0	0	0	0	178.5000	0	0	0	0
951	156.00	-10.21	79.40	-17.30	1.0377	173.30	1	156.00	67.60	0.00	0.00	0.00	0.00	0.00	0.00	0	0	0	0	156.0000	0	0	0	0
952	156.00	-10.21	79.40	-17.30	1.0376	173.30	1	156.00	67.60	0.00	0.00	0.00	0.00	0.00	0.00	0	0	0	0	156.0000	0	0	0	0
953	156.00	-10.21	79.40	-17.30	1.0252	173.30	1	156.00	67.60	0.00	0.00	0.00	0.00	0.00	0.00	0	0	0	0	156.0000	0	0	0	0
954	285.00	-48.83	335.50	-87.80	1.0400	800.00	1	720.00	285.00	0.00	0.00	0.00	0.00	0.00	0.00	0	0	0	0	720.0000	0	0	0	0
955	10.00	12.50	12.50	-2.70	1.0902	27.20	1	24.50	10.00	0.00	0.00	0.00	0.00	0.00	0.00	0	0	0	0	24.5000	0	0	0	0
956	10.00	10.90	10.90	-2.40	1.0819	23.80	1	21.40	10.00	0.00	0.00	0.00	0.00	0.00	0.00	0	0	0	0	21.4000	0	0	0	0
957	15.00	26.16	30.80	-6.70	1.0758	67.20	1	60.50	15.00	0.00	0.00	0.00	0.00	0.00	0.00	0	0	0	0	60.5000	0	0	0	0
958	15.00	26.16	29.20	-6.40	1.0858	63.80	1	57.40	15.00	0.00	0.00	0.00	0.00	0.00	0.00	0	0	0	0	57.4000	0	0	0	0
959	15.00	26.16	30.80	-6.70	1.0753	67.20	1	60.50	15.00	0.00	0.00	0.00	0.00	0.00	0.00	0	0	0	0	60.5000	0	0	0	0
960	60.00	30.50	30.50	-6.70	1.0819	66.70	1	60.00	15.00	0.00	0.00	0.00	0.00	0.00	0.00	0	0	0	0	60.0000	0	0	0	0
961	60.00	30.50	30.50	-6.70	1.0792	66.70	1	60.00	15.00	0.00	0.00	0.00	0.00	0.00	0.00	0	0	0	0	60.0000	0	0	0	0
962	2.93	9.70	9.70	-1.20	1.0512	28.10	1	25.30	1.00	0.00	0.00	0.00	0.00	0.00	0.00	0	0	0	0	25.3000	0	0	0	0
963	25.30	9.70	9.70	-1.20	1.0615	28.10	1	25.30	1.00	0.00	0.00	0.00	0.00	0.00	0.00	0	0	0	0	25.3000	0	0	0	0
964	25.30	9.70	9.70	-1.20	1.0578	28.10	1	25.30	1.00	0.00	0.00	0.00	0.00	0.00	0.00	0	0	0	0	25.3000	0	0	0	0
965	13.80	7.00	7.00	7.00	1.0576	15.30	1	13.80	9.00	0.00	0.00	0.00	0.00	0.00	0.00	0	0	0	0	13.8000	0	0	0	0
966	13.80	7.00	7.00	7.00	1.0766	15.30	1	13.80	9.00	0.00	0.00	0.00	0.00	0.00	0.00	0	0	0	0	13.8000	0	0	0	0
967	15.80	3.50	3.50	-3.20	1.0075	17.60	1	15.80	0.00	0.00	0.00	0.00	0.00	0.00	0.00	0	0	0	0	15.8000	0	0	0	0
968	15.80	3.50	3.50	-3.20	1.0351	17.60	1	15.80	0.00	0.00	0.00	0.00	0.00	0.00	0.00	0	0	0	0	15.8000	0	0	0	0
969	25.60	13.00	13.00	-2.80	1.0909	28.40	1	25.60	5.00	0.00	0.00	0.00	0.00	0.00	0.00	0	0	0	0	25.6000	0	0	0	0
970	16.12	11.10	11.10	-2.40	1.0688	24.20	1	21.80	5.00	0.00	0.00	0.00	0.00	0.00	0.00	0	0	0	0	21.8000	0	0	0	0
971	16.00	3.50	3.50	-3.20	1.0079	17.80	1	16.00	0.00	0.00	0.00	0.00	0.00	0.00	0.00	0	0	0	0	16.0000	0	0	0	0
972	16.00	3.50	3.50	-3.20	1.0128	17.80	1	16.00	0.00	0.00	0.00	0.00	0.00	0.00	0.00	0	0	0	0	16.0000	0	0	0	0
973	8.00	1.80	1.80	-1.60	1.0037	8.90	1	8.00	0.00	0.00	0.00	0.00	0.00	0.00	0.00	0	0	0	0	8.0000	0	0	0	0
974	53.00	-3.52	11.70	-10.60	1.0353	58.90	1	53.00	0.00	0.00	0.00	0.00	0.00	0.00	0.00	0	0	0	0	53.0000	0	0	0	0
975	0.00	17.80	17.80	-16.20	1.0379	90.00	1	81.00	0.00	0.00	0.00	0.00	0.00	0.00	0.00	0	0	0	0	81.0000	0	0	0	0
976	15.00	3.30	3.30	-3.00	1.0293	16.70	1	15.00	0.00	0.00	0.00	0.00	0.00	0.00	0.00	0	0	0	0	15.0000	0	0	0	0
977	0.10	0.00	0.00	0.00	1.0310	11.10	1	10.00	0.10	0.00	0.00	0.00	0.00	0.00	0.00	0	0	0	0	10.0000	0	0	0	0
978	77.64	22.00	22.00	-20.00	1.0462	111.10	1	100.00	1.00	0.00	0.00	0.00	0.00	0.00	0.00	0	0	0	0	100.0000	0	0	0	0
979	15.00	3.30	3.30	-3.00	1.0507	16.70	1	15.00	0.00	0.00	0.00	0.00	0.00	0.00	0.00	0	0	0	0	15.0000	0	0	0	0
980	47.20	20.90	20.90	-19.00	1.0601	105.60	1	95.00	0.00	0.00	0.00	0.00	0.00	0.00	0.00	0	0	0	0	95.0000	0	0	0	0
981	100.00	22.00	22.00	-20.00	1.0536	111.10	1	100.00	0.00	0.00	0.00	0.00	0.00	0.00	0.00	0	0	0	0	100.0000	0	0	0	0
982	6.56	1.80	1.80	-1.60	1.0278	8.90	1	8.00	0.00	0.00	0.00	0.00	0.00	0.00	0.00	0	0	0	0	8.0000	0	0	0	0
983	41.23	39.60	39.60	-36.00	1.0348	200.00	1	180.00	0.00	0.00	0.00	0.00	0.00	0.00	0.00	0	0	0	0	180.0000	0	0	0	0
984	0.00	39.60	39.60	-36.00	1.0506	200.00	1	180.00	0.00	0.00	0.00	0.00	0.00	0.00	0.00	0	0	0	0	180.0000	0	0	0	0
985	70.00	15.40	15.40	-14.00	1.0131	77.80	1	70.00	0.00	0.00	0.00	0.00	0.00	0.00	0.00	0	0	0	0	70.0000	0	0	0	0
986	6.80	1.50	1.50	-1.40	1.0221	7.60	1	6.80	0.00	0.00	0.00	0.00	0.00	0.00	0.00	0	0	0	0	6.8000	0	0	0	0
987	126.00	33.00	33.00	-30.00	1.0513	166.70	1	150.00	0.00	0.00	0.00	0.00	0.00	0.00	0.00	0	0	0	0	150.0000	0	0	0	0
988	184.50	-26.60	39.30	-26.60	1.0381	205.00	1	184.50	0.00	0.00	0.00	0.00	0.00	0.00	0.00	0	0	0	0	184.5000	0	0	0	0
989	0.00	36.55	39.60	-36.00	1.0649	200.00	1	180.00	0.00	0.00	0.00	0.00	0.00	0.00	0.00	0	0	0	0	180.0000	0	0	0	0
990	144.14	30.08	38.50	-35.00	1.0545	194.40	1	175.00	0.00	0.00	0.00	0.00	0.00	0.00	0.00	0	0	0	0	175.0000	0	0	0	0
991	4.30	26.80	26.80	-24.40	1.0605	135.60	1	122.00	4.30	0.00	0.00	0.00	0.00	0.00	0.00	0	0	0	0	122.0000	0	0	0	0
992	100.00	-20.00	22.00	-20.00	1.0267	111.10	1	100.00	0.00	0.00	0.00	0.00	0.00	0.00	0.00	0	0	0	0	100.0000	0	0	0	0
993	16.00	3.50	3.50	-3.20	1.0495	17.80	1	16.00	0.00	0.00	0.00	0.00	0.00	0.00	0.00	0	0	0	0	16.0000	0	0	0	0
994	0.00	2.20	2.20	-2.00	1.0385	11.10	1	10.00	0.00	0.00	0.00	0.00	0.00	0.00	0.00	0	0	0	0	10.0000	0	0	0	0
995	67.86	22.00	22.00	-20.00	1.0555	111.10	1	100.00	0.00	0.00	0.00	0.00	0.00	0.00	0.00	0	0	0	0	100.0000	0	0	0	0
];

%% generator cost data
mpc.gencost = [
2	0	0	4	0.0000	0.000	0.000	0.00
2	0	0	4	0.0000	0.000	0.000	0.00
2	0	0	4	0.0000	0.007	8.017	0.00
2	0	0	4	0.0000	0.010	8.017	0.00
2	0	0	4	0.0000	0.007	8.017	0.00
2	0	0	4	0.0000	0.005	4.672	0.00
2	0	0	4	0.0000	0.004	4.672	0.00
2	0	0	4	0.0000	0.000	0.000	0.00
2	0	0	4	0.0000	0.000	0.000	0.00
2	0	0	4	0.0000	0.000	0.000	0.00
2	0	0	4	0.0000	0.000	0.000	0.00
2	0	0	4	0.0000	0.000	0.000	0.00
2	0	0	4	0.0000	0.000	0.000	0.00
2	0	0	4	0.0000	0.000	0.000	0.00
2	0	0	4	0.0000	0.000	0.000	0.00
2	0	0	4	0.0000	0.000	0.000	0.00
2	0	0	4	0.0000	0.013	8.017	0.00
2	0	0	4	0.0000	0.012	8.017	0.00
2	0	0	4	0.0000	0.012	8.017	0.00
2	0	0	4	0.0000	0.014	8.017	0.00
2	0	0	4	0.0000	0.013	8.017	0.00
2	0	0	4	0.0000	0.015	8.017	0.00
2	0	0	4	0.0000	0.013	8.017	0.00
2	0	0	4	0.0000	0.014	8.017	0.00
2	0	0	4	0.0000	0.013	8.017	0.00
2	0	0	4	0.0000	0.004	4.579	0.00
2	0	0	4	0.0000	0.004	4.581	0.00
2	0	0	4	0.0000	0.003	4.593	0.00
2	0	0	4	0.0000	0.004	4.605	0.00
2	0	0	4	0.0000	0.000	0.000	0.00
2	0	0	4	0.0000	0.000	0.000	0.00
2	0	0	4	0.0000	0.009	8.017	0.00
2	0	0	4	0.0000	0.006	8.017	0.00
2	0	0	4	0.0000	0.006	8.017	0.00
2	0	0	4	0.0000	0.006	8.017	0.00
2	0	0	4	0.0000	0.004	4.580	0.00
2	0	0	4	0.0000	0.004	4.580	0.00
2	0	0	4	0.0000	0.008	8.017	0.00
2	0	0	4	0.0000	0.024	8.017	0.00
2	0	0	4	0.0000	0.021	8.017	0.00
2	0	0	4	0.0000	0.008	5.036	0.00
2	0	0	4	0.0000	0.007	5.036	0.00
2	0	0	4	0.0000	0.008	8.017	0.00
2	0	0	4	0.0000	0.008	8.017	0.00
2	0	0	4	0.0000	0.007	8.017	0.00
2	0	0	4	0.0000	0.007	8.017	0.00
2	0	0	4	0.0000	0.007	8.017	0.00
2	0	0	4	0.0000	0.008	8.017	0.00
2	0	0	4	0.0000	0.006	8.017	0.00
2	0	0	4	0.0000	0.009	8.017	0.00
2	0	0	4	0.0000	0.009	8.017	0.00
2	0	0	4	0.0000	0.008	8.017	0.00
2	0	0	4	0.0000	0.010	8.017	0.00
2	0	0	4	0.0000	0.009	8.017	0.00
2	0	0	4	0.0000	0.008	8.017	0.00
2	0	0	4	0.0000	0.007	8.017	0.00
2	0	0	4	0.0000	0.008	8.017	0.00
2	0	0	4	0.0000	0.006	8.017	0.00
2	0	0	4	0.0000	0.006	8.017	0.00
2	0	0	4	0.0000	0.005	8.017	0.00
2	0	0	4	0.0000	0.007	8.017	0.00
2	0	0	4	0.0000	0.009	8.017	0.00
2	0	0	4	0.0000	0.007	5.210	0.00
2	0	0	4	0.0000	0.000	0.000	0.00
2	0	0	4	0.0000	0.000	0.000	0.00
2	0	0	4	0.0000	0.000	0.000	0.00
2	0	0	4	0.0000	0.000	0.000	0.00
2	0	0	4	0.0000	0.000	0.000	0.00
2	0	0	4	0.0000	0.000	0.000	0.00
2	0	0	4	0.0000	0.022	8.017	0.00
2	0	0	4	0.0000	0.021	8.017	0.00
2	0	0	4	0.0000	0.018	8.017	0.00
2	0	0	4	0.0000	0.002	4.581	0.00
2	0	0	4	0.0000	0.002	4.581	0.00
2	0	0	4	0.0000	0.005	8.017	0.00
2	0	0	4	0.0000	0.002	4.580	0.00
2	0	0	4	0.0000	0.003	4.580	0.00
2	0	0	4	0.0000	0.007	4.911	0.00
2	0	0	4	0.0000	0.007	4.911	0.00
2	0	0	4	0.0000	0.005	4.734	0.00
2	0	0	4	0.0000	0.006	4.803	0.00
2	0	0	4	0.0000	0.007	4.803	0.00
2	0	0	4	0.0000	0.005	4.684	0.00
2	0	0	4	0.0000	0.005	4.687	0.00
2	0	0	4	0.0000	0.005	4.687	0.00
2	0	0	4	0.0000	0.005	4.687	0.00
2	0	0	4	0.0000	0.006	4.684	0.00
2	0	0	4	0.0000	0.006	4.684	0.00
2	0	0	4	0.0000	0.004	4.684	0.00
2	0	0	4	0.0000	0.004	4.684	0.00
2	0	0	4	0.0000	0.004	4.684	0.00
2	0	0	4	0.0000	0.004	4.684	0.00
2	0	0	4	0.0000	0.004	4.684	0.00
2	0	0	4	0.0000	0.005	4.687	0.00
2	0	0	4	0.0000	0.007	4.916	0.00
2	0	0	4	0.0000	0.004	4.580	0.00
2	0	0	4	0.0000	0.004	4.580	0.00
2	0	0	4	0.0000	0.002	4.580	0.00
2	0	0	4	0.0000	0.000	0.000	0.00
2	0	0	4	0.0000	0.000	0.000	0.00
2	0	0	4	0.0000	0.000	0.000	0.00
2	0	0	4	0.0000	0.000	0.000	0.00
2	0	0	4	0.0000	0.000	0.000	0.00
2	0	0	4	0.0000	0.007	4.818	0.00
2	0	0	4	0.0000	0.006	4.818	0.00
2	0	0	4	0.0000	0.006	4.818	0.00
2	0	0	4	0.0000	0.005	4.722	0.00
2	0	0	4	0.0000	0.005	4.722	0.00
2	0	0	4	0.0000	0.005	4.722	0.00
2	0	0	4	0.0000	0.007	4.812	0.00
2	0	0	4	0.0000	0.004	4.639	0.00
2	0	0	4	0.0000	0.006	4.721	0.00
2	0	0	4	0.0000	0.006	4.721	0.00
2	0	0	4	0.0000	0.005	4.729	0.00
2	0	0	4	0.0000	0.005	4.729	0.00
2	0	0	4	0.0000	0.005	4.686	0.00
2	0	0	4	0.0000	0.004	4.686	0.00
2	0	0	4	0.0000	0.004	4.686	0.00
2	0	0	4	0.0000	0.004	4.686	0.00
2	0	0	4	0.0000	0.005	4.686	0.00
2	0	0	4	0.0000	0.004	4.686	0.00
2	0	0	4	0.0000	0.004	4.686	0.00
2	0	0	4	0.0000	0.006	4.686	0.00
2	0	0	4	0.0000	0.006	4.820	0.00
2	0	0	4	0.0000	0.007	4.827	0.00
2	0	0	4	0.0000	0.006	4.827	0.00
2	0	0	4	0.0000	0.006	4.811	0.00
2	0	0	4	0.0000	0.006	4.811	0.00
2	0	0	4	0.0000	0.006	4.811	0.00
2	0	0	4	0.0000	0.005	4.735	0.00
2	0	0	4	0.0000	0.006	4.735	0.00
2	0	0	4	0.0000	0.005	4.735	0.00
2	0	0	4	0.0000	0.003	4.607	0.00
2	0	0	4	0.0000	0.007	4.838	0.00
2	0	0	4	0.0000	0.006	4.838	0.00
2	0	0	4	0.0000	0.007	4.947	0.00
2	0	0	4	0.0000	0.005	4.674	0.00
2	0	0	4	0.0000	0.005	4.674	0.00
2	0	0	4	0.0000	0.004	4.674	0.00
2	0	0	4	0.0000	0.005	4.674	0.00
2	0	0	4	0.0000	0.007	4.810	0.00
2	0	0	4	0.0000	0.007	4.810	0.00
2	0	0	4	0.0000	0.006	4.810	0.00
2	0	0	4	0.0000	0.007	4.780	0.00
2	0	0	4	0.0000	0.007	4.780	0.00
2	0	0	4	0.0000	0.006	4.780	0.00
2	0	0	4	0.0000	0.023	8.017	0.00
2	0	0	4	0.0000	0.003	4.604	0.00
2	0	0	4	0.0000	0.004	4.600	0.00
2	0	0	4	0.0000	0.004	4.652	0.00
2	0	0	4	0.0000	0.004	4.648	0.00
2	0	0	4	0.0000	0.004	4.652	0.00
2	0	0	4	0.0000	0.003	4.652	0.00
2	0	0	4	0.0000	0.003	4.652	0.00
2	0	0	4	0.0000	0.000	0.000	0.00
2	0	0	4	0.0000	0.000	0.000	0.00
2	0	0	4	0.0000	0.000	0.000	0.00
2	0	0	4	0.0000	0.003	4.590	0.00
2	0	0	4	0.0000	0.004	4.590	0.00
2	0	0	4	0.0000	0.000	0.000	0.00
2	0	0	4	0.0000	0.000	0.000	0.00
2	0	0	4	0.0000	0.004	4.605	0.00
2	0	0	4	0.0000	0.004	4.600	0.00
2	0	0	4	0.0000	0.000	0.000	0.00
2	0	0	4	0.0000	0.000	0.000	0.00
2	0	0	4	0.0000	0.000	0.000	0.00
2	0	0	4	0.0000	0.000	0.000	0.00
2	0	0	4	0.0000	0.000	0.000	0.00
2	0	0	4	0.0000	0.000	0.000	0.00
2	0	0	4	0.0000	0.000	0.000	0.00
2	0	0	4	0.0000	0.000	0.000	0.00
2	0	0	4	0.0000	0.000	0.000	0.00
2	0	0	4	0.0000	0.000	0.000	0.00
2	0	0	4	0.0000	0.000	0.000	0.00
2	0	0	4	0.0000	0.000	0.000	0.00
2	0	0	4	0.0000	0.000	0.000	0.00
2	0	0	4	0.0000	0.000	0.000	0.00
2	0	0	4	0.0000	0.000	0.000	0.00
2	0	0	4	0.0000	0.000	0.000	0.00
2	0	0	4	0.0000	0.000	0.000	0.00
2	0	0	4	0.0000	0.000	0.000	0.00
2	0	0	4	0.0000	0.000	0.000	0.00
2	0	0	4	0.0000	0.000	0.000	0.00
2	0	0	4	0.0000	0.000	0.000	0.00
2	0	0	4	0.0000	0.000	0.000	0.00
2	0	0	4	0.0000	0.000	0.000	0.00
2	0	0	4	0.0000	0.000	0.000	0.00
2	0	0	4	0.0000	0.000	0.000	0.00
];

%% branch data
mpc.branch = [
2	3	0.003820	0.112620	0.00000	146.60	146.60	146.60	1.00000	0.000	1	0.00	0.00	55.61	10.21	-55.49	-6.73	0	0	0	0
2	722	0.008550	0.052937	0.05794	187.10	187.10	187.10	0.00000	0.000	1	0.00	0.00	40.21	-25.40	-40.03	20.43	0	0	0	0
2	808	0.003100	0.221349	0.00000	74.80	74.80	74.80	1.00000	0.000	1	0.00	0.00	-47.93	7.43	48.00	-2.40	0	0	0	0
2	809	0.005146	0.236254	0.00000	66.00	66.00	66.00	1.00000	0.000	1	0.00	0.00	-47.88	7.77	48.00	-2.40	0	0	0	0
3	269	0.037840	0.081890	0.00386	43.70	43.70	43.70	0.00000	0.000	1	0.00	0.00	15.23	-5.19	-15.13	5.01	0	0	0	0
3	343	0.038460	0.092253	0.00987	51.70	51.70	51.70	0.00000	0.000	1	0.00	0.00	7.26	-3.95	-7.23	3.01	0	0	0	0
3	577	0.020370	0.052200	0.00178	45.40	45.40	45.40	0.00000	0.000	1	0.00	0.00	16.51	7.82	-16.45	-7.82	0	0	0	0
3	577	0.019670	0.052200	0.00171	84.30	84.30	84.30	0.00000	0.000	1	0.00	0.00	16.49	8.05	-16.43	-8.05	0	0	0	0
4	5	0.003380	0.107374	0.00000	184.56	184.56	184.56	1.00000	0.000	1	0.00	0.00	99.20	11.47	-98.89	-1.57	0	0	0	0
4	12	0.012350	0.086514	0.07808	194.70	194.70	194.70	0.00000	0.000	1	0.00	0.00	-85.23	25.50	86.16	-27.33	0	0	0	0
4	444	0.007050	0.038347	0.01489	171.80	171.80	171.80	0.00000	0.000	1	0.00	0.00	99.56	24.79	-98.87	-22.63	0	0	0	0
4	694	0.003340	0.020170	0.01353	242.16	242.16	242.16	0.00000	0.000	1	0.00	0.00	134.99	24.57	-134.41	-22.50	0	0	0	0
4	810	0.010088	0.325844	0.00000	56.50	56.50	56.50	1.00000	0.000	1	0.00	0.00	-32.89	-11.73	33.00	15.40	0	0	0	0
4	811	0.003441	0.066679	0.00000	49.50	49.50	49.50	1.00000	0.000	1	0.00	0.00	-32.96	-14.60	33.00	15.40	0	0	0	0
4	812	0.003499	0.147956	0.00000	50.60	50.60	50.60	1.00000	0.000	1	0.00	0.00	-32.96	-13.66	33.00	15.40	0	0	0	0
4	813	0.003507	0.158941	0.00000	125.90	125.90	125.90	1.00000	0.000	1	0.00	0.00	-74.81	-20.08	75.00	28.89	0	0	0	0
4	814	0.001492	0.045046	0.00000	107.50	107.50	107.50	1.00000	0.000	1	0.00	0.00	-74.91	-26.27	75.00	28.89	0	0	0	0
5	362	0.054580	0.144877	0.01147	93.80	93.80	93.80	0.00000	0.000	1	0.00	0.00	37.58	-0.99	-36.85	1.73	0	0	0	0
5	387	0.027630	0.086092	0.00272	72.45	72.45	72.45	0.00000	0.000	1	0.00	0.00	22.62	26.48	-22.30	-25.77	0	0	0	0
5	555	0.030970	0.098610	0.00996	41.50	41.50	41.50	0.00000	0.000	1	0.00	0.00	17.53	8.68	-17.41	-9.36	0	0	0	0
5	578	0.109480	0.240144	0.01247	79.00	79.00	79.00	0.00000	0.000	1	0.00	0.00	15.46	9.03	-15.12	-9.55	0	0	0	0
5	695	0.025890	0.072531	0.00438	102.70	102.70	102.70	0.00000	0.000	1	0.00	0.00	5.70	23.14	-5.56	-23.20	0	0	0	0
6	7	0.002700	0.086847	0.00000	153.60	153.60	153.60	1.00000	0.000	1	0.00	0.00	74.21	9.88	-74.07	-5.36	0	0	0	0
6	9	0.002350	0.011906	0.00534	150.90	150.90	150.90	0.00000	0.000	1	0.00	0.00	19.87	23.14	-19.85	-23.61	0	0	0	0
6	498	0.007030	0.026534	0.01995	150.70	150.70	150.70	0.00000	0.000	1	0.00	0.00	35.65	8.13	-35.57	-9.93	0	0	0	0
6	815	0.009611	0.324901	0.00000	56.70	56.70	56.70	1.00000	0.000	1	0.00	0.00	-32.40	-9.08	32.50	12.50	0	0	0	0
6	816	0.007278	0.239869	0.00000	60.90	60.90	60.90	1.00000	0.000	1	0.00	0.00	-32.42	-9.94	32.50	12.50	0	0	0	0
6	817	0.003898	0.119786	0.00000	54.20	54.20	54.20	1.00000	0.000	1	0.00	0.00	-32.46	-11.19	32.50	12.50	0	0	0	0
6	818	0.004332	0.141958	0.00000	63.10	63.10	63.10	1.00000	0.000	1	0.00	0.00	-32.45	-10.95	32.50	12.50	0	0	0	0
7	263	0.053570	0.130269	0.01330	47.60	47.60	47.60	0.00000	0.000	1	0.00	0.00	20.18	-2.03	-19.97	1.14	0	0	0	0
7	300	0.011080	0.031377	0.00441	34.60	34.60	34.60	0.00000	0.000	1	0.00	0.00	7.88	-2.16	-7.87	1.72	0	0	0	0
7	354	0.015500	0.037297	0.00399	45.84	45.84	45.84	0.00000	0.000	1	0.00	0.00	20.06	3.09	-20.00	-3.36	0	0	0	0
7	647	0.060040	0.158133	0.00620	92.20	92.20	92.20	0.00000	0.000	1	0.00	0.00	25.95	6.47	-25.54	-6.04	0	0	0	0
8	9	0.002460	0.114646	0.00000	620.70	620.70	620.70	1.00000	0.000	1	0.00	0.00	231.63	29.20	-230.40	28.58	0	0	0	0
8	11	0.000640	0.007461	0.60703	1035.90	1035.90	1035.90	0.00000	0.000	1	0.00	0.00	-49.08	-28.52	49.09	-36.97	0	0	0	0
8	60	0.000390	0.004163	0.11634	1077.30	1077.30	1077.30	0.00000	0.000	1	0.00	0.00	35.92	-9.61	-35.92	-2.93	0	0	0	0
8	819	0.001989	0.163373	0.00000	78.10	78.10	78.10	1.00000	0.000	1	0.00	0.00	-44.56	2.76	44.60	0.25	0	0	0	0
8	820	0.001354	0.123238	0.00000	70.60	70.60	70.60	1.00000	0.000	1	0.00	0.00	-42.38	1.80	42.40	0.25	0	0	0	0
8	821	0.000931	0.055406	0.00000	64.40	64.40	64.40	1.00000	0.000	1	0.00	0.00	-42.38	0.67	42.40	0.25	0	0	0	0
8	822	0.001484	0.135577	0.00000	62.00	62.00	62.00	1.00000	0.000	1	0.00	0.00	-44.57	2.25	44.60	0.25	0	0	0	0
8	823	0.001242	0.092552	0.00000	60.80	60.80	60.80	1.00000	0.000	1	0.00	0.00	-44.58	1.45	44.60	0.25	0	0	0	0
9	10	0.005390	0.126072	0.00000	135.20	135.20	135.20	1.00000	0.000	1	0.00	0.00	49.92	4.08	-49.80	-1.12	0	0	0	0
9	12	0.011530	0.060590	0.07508	207.10	207.10	207.10	0.00000	0.000	1	0.00	0.00	12.53	4.01	-12.50	-11.87	0	0	0	0
9	86	0.008900	0.048800	0.02222	175.10	175.10	175.10	0.00000	0.000	1	0.00	0.00	73.51	-15.31	-73.04	15.49	0	0	0	0
9	498	0.002680	0.016918	0.02131	180.70	180.70	180.70	0.00000	0.000	1	0.00	0.00	41.78	2.15	-41.74	-4.14	0	0	0	0
9	782	0.013280	0.060429	0.06449	187.80	187.80	187.80	0.00000	0.000	1	0.00	0.00	72.51	0.11	-71.85	-3.96	0	0	0	0
10	238	0.073020	0.179026	0.01156	48.90	48.90	48.90	0.00000	0.000	1	0.00	0.00	17.77	-1.93	-17.55	1.25	0	0	0	0
10	401	0.020470	0.056122	0.00143	56.90	56.90	56.90	0.00000	0.000	1	0.00	0.00	32.03	3.04	-31.82	-2.64	0	0	0	0
11	12	0.001730	0.102120	0.00000	532.40	532.40	532.40	1.00000	0.000	1	0.00	0.00	268.35	42.36	-267.17	27.33	0	0	0	0
11	39	0.001750	0.022510	0.96217	1094.70	1094.70	1094.70	0.00000	0.000	1	0.00	0.00	2.07	-57.63	-2.07	-46.54	0	0	0	0
11	60	0.000870	0.009951	0.30466	1014.60	1014.60	1014.60	0.00000	0.000	1	0.00	0.00	51.85	-20.88	-51.83	-11.82	0	0	0	0
11	683	0.002950	0.036278	1.08686	1085.50	1085.50	1085.50	0.00000	0.000	1	0.00	0.00	87.44	-75.27	-87.23	-40.06	0	0	0	0
11	824	0.001038	0.074128	0.00000	239.50	239.50	239.50	1.00000	0.000	1	0.00	0.00	-50.97	17.13	51.00	-15.15	0	0	0	0
11	825	0.000226	0.015893	0.00000	244.40	244.40	244.40	1.00000	0.000	1	0.00	0.00	-50.99	15.57	51.00	-15.15	0	0	0	0
11	826	0.000656	0.022963	0.00000	263.00	263.00	263.00	1.00000	0.000	1	0.00	0.00	-50.98	15.76	51.00	-15.15	0	0	0	0
11	827	0.000255	0.014843	0.00000	271.50	271.50	271.50	1.00000	0.000	1	0.00	0.00	-50.99	15.54	51.00	-15.15	0	0	0	0
11	828	0.002121	0.074234	0.00000	210.90	210.90	210.90	1.00000	0.000	1	0.00	0.00	-50.94	17.13	51.00	-15.15	0	0	0	0
11	829	0.000983	0.085868	0.00000	219.30	219.30	219.30	1.00000	0.000	1	0.00	0.00	-50.97	17.46	51.00	-15.15	0	0	0	0
11	830	0.000203	0.022202	0.00000	252.90	252.90	252.90	1.00000	0.000	1	0.00	0.00	-50.99	15.74	51.00	-15.15	0	0	0	0
11	831	0.001445	0.087646	0.00000	206.20	206.20	206.20	1.00000	0.000	1	0.00	0.00	-50.96	17.50	51.00	-15.15	0	0	0	0
11	832	0.000479	0.054231	0.00000	248.30	248.30	248.30	1.00000	0.000	1	0.00	0.00	-50.99	16.59	51.00	-15.15	0	0	0	0
12	13	0.005010	0.147355	0.00000	164.60	164.60	164.60	1.00000	0.000	1	0.00	0.00	86.86	24.42	-86.48	-13.07	0	0	0	0
12	713	0.004360	0.025275	0.02404	302.50	302.50	302.50	0.00000	0.000	1	0.00	0.00	106.64	-12.54	-106.17	12.75	0	0	0	0
13	147	0.047500	0.126182	0.00741	44.00	44.00	44.00	0.00000	0.000	1	0.00	0.00	25.60	-2.66	-25.28	2.77	0	0	0	0
13	433	0.020680	0.043436	0.00440	38.70	38.70	38.70	0.00000	0.000	1	0.00	0.00	20.36	1.84	-20.27	-2.09	0	0	0	0
13	462	0.030750	0.102009	0.00343	40.10	40.10	40.10	0.00000	0.000	1	0.00	0.00	21.65	3.95	-21.50	-3.79	0	0	0	0
13	558	0.028130	0.069639	0.00517	52.20	52.20	52.20	0.00000	0.000	1	0.00	0.00	18.87	9.93	-18.74	-10.11	0	0	0	0
14	15	0.002050	0.103257	0.00000	594.40	594.40	594.40	1.00000	0.000	1	0.00	0.00	225.85	21.05	-224.88	27.98	0	0	0	0
14	51	0.001670	0.018133	0.42099	1025.40	1025.40	1025.40	0.00000	0.000	1	0.00	0.00	-176.49	1.73	176.98	-42.00	0	0	0	0
14	51	0.001670	0.018133	0.42099	1025.40	1025.40	1025.40	0.00000	0.000	1	0.00	0.00	-176.49	1.73	176.98	-42.00	0	0	0	0
14	73	0.000010	0.000119	0.00450	1054.20	1054.20	1054.20	0.00000	0.000	1	0.00	0.00	-16.50	29.84	16.50	-30.32	0	0	0	0
14	73	0.000010	0.000119	0.00448	1348.50	1348.50	1348.50	0.00000	0.000	1	0.00	0.00	-16.50	29.84	16.50	-30.32	0	0	0	0
14	702	0.001900	0.021642	0.76171	1025.00	1025.00	1025.00	0.00000	0.000	1	0.00	0.00	186.11	-90.58	-185.46	14.84	0	0	0	0
14	833	0.009661	0.419324	0.00000	22.90	22.90	22.90	1.00000	0.000	1	0.00	0.00	-5.00	0.80	5.00	-0.70	0	0	0	0
14	834	0.002714	0.263909	0.00000	19.30	19.30	19.30	1.00000	0.000	1	0.00	0.00	-5.00	0.86	5.00	-0.80	0	0	0	0
14	835	0.003421	0.186205	0.00000	32.00	32.00	32.00	1.00000	0.000	1	0.00	0.00	-5.00	1.85	5.00	-1.80	0	0	0	0
14	836	0.001621	0.076626	0.00000	41.50	41.50	41.50	1.00000	0.000	1	0.00	0.00	-11.00	2.89	11.00	-2.80	0	0	0	0
15	16	0.005610	0.177682	0.00000	155.90	155.90	155.90	1.00000	0.000	1	0.00	0.00	29.90	1.66	-29.85	-0.18	0	0	0	0
15	74	0.000140	0.000870	0.00058	188.40	188.40	188.40	0.00000	0.000	1	0.00	0.00	3.14	-5.37	-3.14	5.30	0	0	0	0
15	74	0.000190	0.000870	0.00059	307.20	307.20	307.20	0.00000	0.000	1	0.00	0.00	2.81	-5.47	-2.81	5.41	0	0	0	0
15	630	0.001750	0.009960	0.00870	163.40	163.40	163.40	0.00000	0.000	1	0.00	0.00	94.41	-9.81	-94.26	9.70	0	0	0	0
15	630	0.001660	0.009960	0.00858	323.60	323.60	323.60	0.00000	0.000	1	0.00	0.00	94.63	-8.99	-94.49	8.89	0	0	0	0
16	75	0.001280	0.003750	0.00013	44.00	44.00	44.00	0.00000	0.000	1	0.00	0.00	9.33	-1.26	-9.33	1.25	0	0	0	0
16	75	0.001440	0.003750	0.00014	96.90	96.90	96.90	0.00000	0.000	1	0.00	0.00	9.15	-1.59	-9.15	1.58	0	0	0	0
16	631	0.009580	0.026090	0.00284	57.48	57.48	57.48	0.00000	0.000	1	0.00	0.00	11.37	3.04	-11.36	-3.31	0	0	0	0
18	19	0.004340	0.113246	0.00000	136.00	136.00	136.00	1.00000	0.000	1	0.00	0.00	82.46	11.03	-82.19	-4.02	0	0	0	0
18	535	0.012180	0.068511	0.05827	165.10	165.10	165.10	0.00000	0.000	1	0.00	0.00	58.87	0.68	-58.49	-5.00	0	0	0	0
18	612	0.007680	0.052807	0.07773	184.50	184.50	184.50	0.00000	0.000	1	0.00	0.00	91.23	25.58	-90.60	-29.74	0	0	0	0
18	661	0.019620	0.108079	0.32160	155.40	155.40	155.40	0.00000	0.000	1	0.00	0.00	-12.40	-5.00	12.46	-30.27	0	0	0	0
18	700	0.008910	0.055835	0.09737	184.00	184.00	184.00	0.00000	0.000	1	0.00	0.00	108.49	15.63	-107.52	-20.22	0	0	0	0
18	715	0.019990	0.108519	0.16403	165.40	165.40	165.40	0.00000	0.000	1	0.00	0.00	78.79	0.36	-77.67	-12.21	0	0	0	0
18	837	0.000255	0.016735	0.00000	305.90	305.90	305.90	1.00000	0.000	1	0.00	0.00	-203.90	-31.74	204.00	38.12	0	0	0	0
18	838	0.001219	0.057885	0.00000	248.90	248.90	248.90	1.00000	0.000	1	0.00	0.00	-203.55	-16.52	204.00	38.12	0	0	0	0
19	141	0.050880	0.129794	0.00569	50.20	50.20	50.20	0.00000	0.000	1	0.00	0.00	17.32	-0.22	-17.18	-0.04	0	0	0	0
19	430	0.043690	0.121271	0.00730	46.30	46.30	46.30	0.00000	0.000	1	0.00	0.00	20.10	10.37	-19.89	-10.58	0	0	0	0
19	701	0.052560	0.129345	0.03620	93.50	93.50	93.50	0.00000	0.000	1	0.00	0.00	44.77	-6.13	-43.80	4.62	0	0	0	0
20	693	0.012500	0.032560	0.00363	55.56	55.56	55.56	0.00000	0.000	1	0.00	0.00	-0.52	1.70	0.52	-2.08	0	0	0	0
20	732	0.015640	0.038958	0.00575	93.90	93.90	93.90	0.00000	0.000	1	0.00	0.00	6.50	0.24	-6.50	-0.82	0	0	0	0
20	780	0.019610	0.047408	0.00314	39.00	39.00	39.00	0.00000	0.000	1	0.00	0.00	7.59	3.71	-7.58	-4.01	0	0	0	0
20	839	0.028619	0.837210	0.00000	24.70	24.70	24.70	1.00000	0.000	1	0.00	0.00	-6.79	-2.77	6.80	3.20	0	0	0	0
20	840	0.024845	0.619222	0.00000	21.20	21.20	21.20	1.00000	0.000	1	0.00	0.00	-6.79	-2.88	6.80	3.20	0	0	0	0
21	295	0.051620	0.139239	0.00459	43.20	43.20	43.20	0.00000	0.000	1	0.00	0.00	7.93	2.40	-7.90	-2.80	0	0	0	0
21	579	0.003230	0.008834	0.00067	49.00	49.00	49.00	0.00000	0.000	1	0.00	0.00	23.39	11.55	-23.37	-11.56	0	0	0	0
21	841	0.018573	0.435853	0.00000	23.20	23.20	23.20	1.00000	0.000	1	0.00	0.00	-6.19	-2.71	6.20	2.90	0	0	0	0
21	842	0.048035	0.578658	0.00000	18.80	18.80	18.80	1.00000	0.000	1	0.00	0.00	-6.18	-2.65	6.20	2.90	0	0	0	0
21	843	0.023459	0.234592	0.00000	19.80	19.80	19.80	1.00000	0.000	1	0.00	0.00	-6.39	-3.19	6.40	3.30	0	0	0	0
21	844	0.071295	1.067693	0.00000	18.30	18.30	18.30	1.00000	0.000	1	0.00	0.00	-6.37	-2.81	6.40	3.30	0	0	0	0
21	845	0.020447	0.752654	0.00000	20.50	20.50	20.50	1.00000	0.000	1	0.00	0.00	-6.19	-2.58	6.20	2.90	0	0	0	0
22	23	0.004420	0.166876	0.00000	482.50	482.50	482.50	1.00000	0.000	1	0.00	0.00	225.37	37.03	-223.24	43.45	0	0	0	0
22	36	0.001180	0.014097	0.43748	950.40	950.40	950.40	0.00000	0.000	1	0.00	0.00	87.73	-34.37	-87.64	-11.95	0	0	0	0
22	39	0.000920	0.009191	0.47521	1003.20	1003.20	1003.20	0.00000	0.000	1	0.00	0.00	151.83	-53.20	-151.63	3.76	0	0	0	0
22	652	0.001740	0.024210	0.49939	1378.10	1378.10	1378.10	0.00000	0.000	1	0.00	0.00	-125.13	-31.03	125.38	-19.65	0	0	0	0
22	846	0.000429	0.024622	0.00000	820.30	820.30	820.30	1.00000	0.000	1	0.00	0.00	-169.88	41.66	170.00	-34.70	0	0	0	0
22	847	0.000256	0.018531	0.00000	885.40	885.40	885.40	1.00000	0.000	1	0.00	0.00	-169.93	39.92	170.00	-34.70	0	0	0	0
23	24	0.003170	0.089484	0.00000	171.70	171.70	171.70	1.00000	0.000	1	0.00	0.00	46.02	5.38	-45.95	-3.58	0	0	0	0
23	403	0.003470	0.020166	0.01565	181.80	181.80	181.80	0.00000	0.000	1	0.00	0.00	34.53	-11.98	-34.49	10.55	0	0	0	0
23	508	0.010780	0.055316	0.07825	179.80	179.80	179.80	0.00000	0.000	1	0.00	0.00	46.72	0.16	-46.50	-7.37	0	0	0	0
23	537	0.018370	0.101326	0.13190	183.00	183.00	183.00	0.00000	0.000	1	0.00	0.00	95.97	-37.01	-94.24	32.18	0	0	0	0
24	199	0.016360	0.050088	0.00970	66.20	66.20	66.20	0.00000	0.000	1	0.00	0.00	28.89	-2.66	-28.76	2.03	0	0	0	0
24	446	0.036480	0.091756	0.00554	59.28	59.28	59.28	0.00000	0.000	1	0.00	0.00	17.06	6.25	-16.95	-6.54	0	0	0	0
25	26	0.002930	0.131561	0.00000	570.30	570.30	570.30	1.00000	0.000	1	0.00	0.00	260.85	52.76	-258.97	31.75	0	0	0	0
25	129	0.000280	0.003478	0.15765	1104.90	1104.90	1104.90	0.00000	0.000	1	0.00	0.00	93.15	51.15	-93.12	-68.11	0	0	0	0
25	607	0.000580	0.007213	0.22479	1442.10	1442.10	1442.10	0.00000	0.000	1	0.00	0.00	-136.21	-6.18	136.31	-17.40	0	0	0	0
25	702	0.000600	0.007979	0.28722	1347.00	1347.00	1347.00	0.00000	0.000	1	0.00	0.00	-21.35	4.46	21.35	-36.02	0	0	0	0
25	848	0.000711	0.037507	0.00000	485.00	485.00	485.00	1.00000	0.000	1	0.00	0.00	-7.10	-4.62	7.11	4.64	0	0	0	0
25	849	0.000447	0.041023	0.00000	396.30	396.30	396.30	1.00000	0.000	1	0.00	0.00	-69.38	-2.85	69.40	4.65	0	0	0	0
25	850	0.001152	0.087693	0.00000	37.90	37.90	37.90	1.00000	0.000	1	0.00	0.00	-5.00	-4.59	5.00	4.62	0	0	0	0
25	851	0.001827	0.119004	0.00000	48.40	48.40	48.40	1.00000	0.000	1	0.00	0.00	-5.00	-4.57	5.00	4.62	0	0	0	0
25	852	0.001720	0.144418	0.00000	43.30	43.30	43.30	1.00000	0.000	1	0.00	0.00	-5.00	-4.56	5.00	4.62	0	0	0	0
25	853	0.003279	0.118609	0.00000	40.20	40.20	40.20	1.00000	0.000	1	0.00	0.00	-5.00	-4.57	5.00	4.62	0	0	0	0
25	854	0.008538	0.390636	0.00000	40.00	40.00	40.00	1.00000	0.000	1	0.00	0.00	-5.00	-4.47	5.00	4.62	0	0	0	0
25	855	0.005713	0.364599	0.00000	38.70	38.70	38.70	1.00000	0.000	1	0.00	0.00	-5.00	-4.48	5.00	4.62	0	0	0	0
25	856	0.004684	0.434839	0.00000	42.10	42.10	42.10	1.00000	0.000	1	0.00	0.00	-5.00	-4.45	5.00	4.62	0	0	0	0
25	857	0.001486	0.085345	0.00000	84.60	84.60	84.60	1.00000	0.000	1	0.00	0.00	-10.00	-4.53	10.00	4.62	0	0	0	0
25	858	0.000781	0.070745	0.00000	91.20	91.20	91.20	1.00000	0.000	1	0.00	0.00	-10.00	-4.55	10.00	4.62	0	0	0	0
25	859	0.001420	0.097934	0.00000	92.40	92.40	92.40	1.00000	0.000	1	0.00	0.00	-10.00	-4.52	10.00	4.62	0	0	0	0
25	860	0.004665	0.217492	0.00000	94.80	94.80	94.80	1.00000	0.000	1	0.00	0.00	-9.99	-4.39	10.00	4.62	0	0	0	0
25	861	0.012974	0.454099	0.00000	41.00	41.00	41.00	1.00000	0.000	1	0.00	0.00	-4.99	-4.44	5.00	4.62	0	0	0	0
25	862	0.009500	0.332510	0.00000	49.40	49.40	49.40	1.00000	0.000	1	0.00	0.00	-5.00	-4.49	5.00	4.62	0	0	0	0
25	863	0.001437	0.153297	0.00000	38.50	38.50	38.50	1.00000	0.000	1	0.00	0.00	-5.00	-4.56	5.00	4.62	0	0	0	0
25	864	0.002942	0.255301	0.00000	39.80	39.80	39.80	1.00000	0.000	1	0.00	0.00	-5.00	-4.52	5.00	4.62	0	0	0	0
25	865	0.012750	0.458764	0.00000	41.00	41.00	41.00	1.00000	0.000	1	0.00	0.00	-4.99	-4.44	5.00	4.62	0	0	0	0
25	866	0.005189	0.223975	0.00000	45.60	45.60	45.60	1.00000	0.000	1	0.00	0.00	-5.00	-4.53	5.00	4.62	0	0	0	0
...